<?xml version="1.0" encoding="UTF-8"?>

<!-- generated on 2024-05-10 10:33:54 by Eclipse SUMO netedit Version 1.18.0
<configuration xmlns:xsi="http://www.w3.org/2001/XMLSchema-instance" xsi:noNamespaceSchemaLocation="http://sumo.dlr.de/xsd/neteditConfiguration.xsd">

    <input>
        <sumo-net-file value="./test/Illan_de_vacas.net.xml"/>
    </input>

    <output>
        <output-file value="./test/Illan_de_vacas.net.xml"/>
    </output>

    <processing>
        <geometry.min-radius.fix.railways value="false"/>
        <geometry.max-grade.fix value="false"/>
        <offset.disable-normalization value="true"/>
        <lefthand value="0"/>
    </processing>

    <junctions>
        <no-turnarounds value="true"/>
        <junctions.corner-detail value="5"/>
        <junctions.limit-turn-speed value="5.50"/>
        <rectangular-lane-cut value="0"/>
    </junctions>

    <pedestrian>
        <walkingareas value="0"/>
    </pedestrian>

</configuration>
-->

<net version="1.16" junctionCornerDetail="5" limitTurnSpeed="5.50" xmlns:xsi="http://www.w3.org/2001/XMLSchema-instance" xsi:noNamespaceSchemaLocation="http://sumo.dlr.de/xsd/net_file.xsd">

    <location netOffset="-366933.99,-4425632.56" convBoundary="0.00,0.00,234.05,93.36" origBoundary="-4.558195,39.970397,-4.555458,39.971261" projParameter="+proj=utm +zone=30 +ellps=WGS84 +datum=WGS84 +units=m +no_defs"/>

    <type id="highway.residential" priority="3" numLanes="1" speed="13.89" disallow="tram rail_urban rail rail_electric rail_fast ship" oneway="0"/>

    <edge id=":1864382548_0" function="internal">
        <lane id=":1864382548_0_0" index="0" disallow="tram rail_urban rail rail_electric rail_fast ship" speed="13.89" length="18.03" shape="70.75,87.62 52.76,86.37"/>
    </edge>
    <edge id=":1864382548_1" function="internal">
        <lane id=":1864382548_1_0" index="0" disallow="tram rail_urban rail rail_electric rail_fast ship" speed="13.89" length="18.52" shape="70.75,87.62 67.07,87.97 63.15,88.87 58.45,89.64 52.42,89.55"/>
    </edge>
    <edge id=":1864382548_2" function="internal">
        <lane id=":1864382548_2_0" index="0" disallow="tram rail_urban rail rail_electric rail_fast ship" speed="8.40" length="17.94" shape="70.75,87.62 65.20,86.73 61.58,84.65 59.87,81.39 60.09,76.93"/>
    </edge>
    <edge id=":1864382548_3" function="internal">
        <lane id=":1864382548_3_0" index="0" disallow="tram rail_urban rail rail_electric rail_fast ship" speed="8.40" length="17.94" shape="70.75,87.62 65.20,86.73 61.58,84.65 59.87,81.39 60.09,76.93"/>
    </edge>
    <edge id=":1864382548_4" function="internal">
        <lane id=":1864382548_4_0" index="0" disallow="tram rail_urban rail rail_electric rail_fast ship" speed="3.24" length="3.20" shape="70.75,87.62 70.90,84.42"/>
    </edge>
    <edge id=":1864382548_5" function="internal">
        <lane id=":1864382548_5_0" index="0" disallow="tram rail_urban rail rail_electric rail_fast ship" speed="3.65" length="4.67" shape="70.75,87.62 69.59,86.76 69.23,85.95 69.66,85.17 70.90,84.42"/>
    </edge>
    <edge id=":1864382548_6" function="internal">
        <lane id=":1864382548_6_0" index="0" disallow="tram rail_urban rail rail_electric rail_fast ship" speed="13.89" length="18.03" shape="70.75,87.62 52.76,86.37"/>
    </edge>
    <edge id=":1864382548_7" function="internal">
        <lane id=":1864382548_7_0" index="0" disallow="tram rail_urban rail rail_electric rail_fast ship" speed="13.89" length="18.52" shape="70.75,87.62 67.07,87.97 63.15,88.87 58.45,89.64 52.42,89.55"/>
    </edge>
    <edge id=":1864382548_8" function="internal">
        <lane id=":1864382548_8_0" index="0" disallow="tram rail_urban rail rail_electric rail_fast ship" speed="8.40" length="17.94" shape="70.75,87.62 65.20,86.73 61.58,84.65 59.87,81.39 60.09,76.93"/>
    </edge>
    <edge id=":1864382548_9" function="internal">
        <lane id=":1864382548_9_0" index="0" disallow="tram rail_urban rail rail_electric rail_fast ship" speed="8.40" length="17.94" shape="70.75,87.62 65.20,86.73 61.58,84.65 59.87,81.39 60.09,76.93"/>
    </edge>
    <edge id=":1864382548_10" function="internal">
        <lane id=":1864382548_10_0" index="0" disallow="tram rail_urban rail rail_electric rail_fast ship" speed="3.65" length="4.67" shape="70.75,87.62 69.59,86.76 69.23,85.95 69.66,85.17 70.90,84.42"/>
    </edge>
    <edge id=":1864382548_11" function="internal">
        <lane id=":1864382548_11_0" index="0" disallow="tram rail_urban rail rail_electric rail_fast ship" speed="3.24" length="3.20" shape="70.75,87.62 70.90,84.42"/>
    </edge>
    <edge id=":1864382548_12" function="internal">
        <lane id=":1864382548_12_0" index="0" disallow="tram rail_urban rail rail_electric rail_fast ship" speed="6.14" length="9.06" shape="66.32,78.38 66.10,80.92 66.79,82.78 68.39,83.94 70.90,84.42"/>
    </edge>
    <edge id=":1864382548_13" function="internal">
        <lane id=":1864382548_13_0" index="0" disallow="tram rail_urban rail rail_electric rail_fast ship" speed="6.14" length="9.06" shape="66.32,78.38 66.10,80.92 66.79,82.78 68.39,83.94 70.90,84.42"/>
    </edge>
    <edge id=":1864382548_14" function="internal">
        <lane id=":1864382548_14_0" index="0" disallow="tram rail_urban rail rail_electric rail_fast ship" speed="9.23" length="17.47" shape="66.32,78.38 64.67,82.34 61.86,85.00 57.89,86.34 52.76,86.37"/>
    </edge>
    <edge id=":1864382548_15" function="internal">
        <lane id=":1864382548_15_0" index="0" disallow="tram rail_urban rail rail_electric rail_fast ship" speed="9.81" length="19.82" shape="66.32,78.38 64.37,83.72 61.40,87.36 57.42,89.30 52.42,89.55"/>
        <lane id=":1864382548_15_1" index="1" disallow="tram rail_urban rail rail_electric rail_fast ship" speed="8.62" length="15.11" shape="63.21,77.66 61.71,81.80 59.48,84.64 56.49,86.16 52.76,86.37"/>
    </edge>
    <edge id=":1864382548_17" function="internal">
        <lane id=":1864382548_17_0" index="0" disallow="tram rail_urban rail rail_electric rail_fast ship" speed="3.24" length="3.20" shape="63.21,77.66 60.09,76.93"/>
    </edge>
    <edge id=":1864382548_18" function="internal">
        <lane id=":1864382548_18_0" index="0" disallow="tram rail_urban rail rail_electric rail_fast ship" speed="3.65" length="4.67" shape="63.21,77.66 62.16,78.64 61.29,78.85 60.60,78.28 60.09,76.93"/>
    </edge>
    <edge id=":1864382548_19" function="internal">
        <lane id=":1864382548_19_0" index="0" disallow="tram rail_urban rail rail_electric rail_fast ship" speed="6.99" length="12.09" shape="63.21,77.66 63.13,80.46 64.39,82.52 66.98,83.84 70.90,84.42"/>
    </edge>
    <edge id=":1864382548_20" function="internal">
        <lane id=":1864382548_20_0" index="0" disallow="tram rail_urban rail rail_electric rail_fast ship" speed="6.99" length="12.09" shape="63.21,77.66 63.13,80.46 64.39,82.52 66.98,83.84 70.90,84.42"/>
    </edge>
    <edge id=":1864382548_21" function="internal">
        <lane id=":1864382548_21_0" index="0" disallow="tram rail_urban rail rail_electric rail_fast ship" speed="8.62" length="15.11" shape="63.21,77.66 61.71,81.80 59.48,84.64 56.49,86.16 52.76,86.37"/>
    </edge>
    <edge id=":1864382548_22" function="internal">
        <lane id=":1864382548_22_0" index="0" disallow="tram rail_urban rail rail_electric rail_fast ship" speed="8.45" length="14.48" shape="63.21,77.66 61.72,80.94 59.14,83.84 55.98,85.82 52.76,86.37"/>
    </edge>
    <edge id=":1864382548_23" function="internal">
        <lane id=":1864382548_23_0" index="0" disallow="tram rail_urban rail rail_electric rail_fast ship" speed="3.65" length="4.67" shape="63.21,77.66 62.16,78.64 61.29,78.85 60.60,78.28 60.09,76.93"/>
    </edge>
    <edge id=":1864382548_24" function="internal">
        <lane id=":1864382548_24_0" index="0" disallow="tram rail_urban rail rail_electric rail_fast ship" speed="3.24" length="3.20" shape="63.21,77.66 60.09,76.93"/>
    </edge>
    <edge id=":1864382548_25" function="internal">
        <lane id=":1864382548_25_0" index="0" disallow="tram rail_urban rail rail_electric rail_fast ship" speed="7.25" length="10.39" shape="53.11,83.19 55.56,83.02 57.55,81.92 59.06,79.89 60.09,76.93"/>
    </edge>
    <edge id=":1864382548_26" function="internal">
        <lane id=":1864382548_26_0" index="0" disallow="tram rail_urban rail rail_electric rail_fast ship" speed="7.25" length="10.39" shape="53.11,83.19 55.56,83.02 57.55,81.92 59.06,79.89 60.09,76.93"/>
    </edge>
    <edge id=":1864382548_27" function="internal">
        <lane id=":1864382548_27_0" index="0" disallow="tram rail_urban rail rail_electric rail_fast ship" speed="13.89" length="17.83" shape="53.11,83.19 70.90,84.42"/>
    </edge>
    <edge id=":1864382548_28" function="internal">
        <lane id=":1864382548_28_0" index="0" disallow="tram rail_urban rail rail_electric rail_fast ship" speed="13.89" length="17.83" shape="53.11,83.19 70.90,84.42"/>
    </edge>
    <edge id=":1864382548_29" function="internal">
        <lane id=":1864382548_29_0" index="0" disallow="tram rail_urban rail rail_electric rail_fast ship" speed="3.24" length="3.20" shape="53.11,83.19 52.76,86.37"/>
    </edge>
    <edge id=":1864382548_30" function="internal">
        <lane id=":1864382548_30_0" index="0" disallow="tram rail_urban rail rail_electric rail_fast ship" speed="3.65" length="4.67" shape="53.11,83.19 54.21,84.11 54.53,84.95 54.04,85.71 52.76,86.37"/>
    </edge>
    <edge id=":1864382548_31" function="internal">
        <lane id=":1864382548_31_0" index="0" disallow="tram rail_urban rail rail_electric rail_fast ship" speed="7.25" length="10.39" shape="53.11,83.19 55.56,83.02 57.55,81.92 59.06,79.89 60.09,76.93"/>
    </edge>
    <edge id=":1864382548_32" function="internal">
        <lane id=":1864382548_32_0" index="0" disallow="tram rail_urban rail rail_electric rail_fast ship" speed="7.25" length="10.39" shape="53.11,83.19 55.56,83.02 57.55,81.92 59.06,79.89 60.09,76.93"/>
    </edge>
    <edge id=":1864382548_33" function="internal">
        <lane id=":1864382548_33_0" index="0" disallow="tram rail_urban rail rail_electric rail_fast ship" speed="13.89" length="17.83" shape="53.11,83.19 70.90,84.42"/>
    </edge>
    <edge id=":1864382548_34" function="internal">
        <lane id=":1864382548_34_0" index="0" disallow="tram rail_urban rail rail_electric rail_fast ship" speed="13.89" length="17.83" shape="53.11,83.19 70.90,84.42"/>
    </edge>
    <edge id=":1864382548_35" function="internal">
        <lane id=":1864382548_35_0" index="0" disallow="tram rail_urban rail rail_electric rail_fast ship" speed="3.65" length="4.67" shape="53.11,83.19 54.21,84.11 54.53,84.95 54.04,85.71 52.76,86.37"/>
    </edge>
    <edge id=":1864382548_36" function="internal">
        <lane id=":1864382548_36_0" index="0" disallow="tram rail_urban rail rail_electric rail_fast ship" speed="3.24" length="3.20" shape="53.11,83.19 52.76,86.37"/>
    </edge>
    <edge id=":1864382694_0" function="internal">
        <lane id=":1864382694_0_0" index="0" disallow="tram rail_urban rail rail_electric rail_fast ship" speed="13.89" length="17.45" shape="72.78,53.16 70.51,58.38 68.33,62.26 66.50,65.51 65.26,68.87"/>
    </edge>
    <edge id=":1864382694_1" function="internal">
        <lane id=":1864382694_1_0" index="0" disallow="tram rail_urban rail rail_electric rail_fast ship" speed="13.89" length="17.22" shape="72.78,53.16 71.14,57.94 70.21,61.27 69.47,64.65 68.37,69.59"/>
        <lane id=":1864382694_1_1" index="1" disallow="tram rail_urban rail rail_electric rail_fast ship" speed="13.89" length="17.22" shape="69.77,52.07 68.09,56.95 67.14,60.36 66.38,63.82 65.26,68.87"/>
    </edge>
    <edge id=":1864382694_3" function="internal">
        <lane id=":1864382694_3_0" index="0" disallow="tram rail_urban rail rail_electric rail_fast ship" speed="13.89" length="4.28" shape="69.77,52.07 67.80,55.87"/>
    </edge>
    <edge id=":1864382694_4" function="internal">
        <lane id=":1864382694_4_0" index="0" disallow="tram rail_urban rail rail_electric rail_fast ship" speed="13.89" length="18.34" shape="69.77,52.07 67.10,57.22 63.91,60.56 60.54,62.88 57.32,64.95"/>
    </edge>
    <edge id=":1864382694_5" function="internal">
        <lane id=":1864382694_5_0" index="0" disallow="tram rail_urban rail rail_electric rail_fast ship" speed="3.24" length="1.57" shape="69.77,52.07 68.30,51.53"/>
    </edge>
    <edge id=":1864382694_6" function="internal">
        <lane id=":1864382694_6_0" index="0" disallow="tram rail_urban rail rail_electric rail_fast ship" speed="3.65" length="1.44" shape="69.77,52.07 68.61,52.92"/>
    </edge>
    <edge id=":1864382694_37" function="internal">
        <lane id=":1864382694_37_0" index="0" disallow="tram rail_urban rail rail_electric rail_fast ship" speed="13.89" length="14.06" shape="67.80,55.87 67.10,57.22 63.91,60.56 60.54,62.88 57.32,64.95"/>
    </edge>
    <edge id=":1864382694_38" function="internal">
        <lane id=":1864382694_38_0" index="0" disallow="tram rail_urban rail rail_electric rail_fast ship" speed="3.24" length="1.63" shape="68.30,51.53 66.76,50.98"/>
    </edge>
    <edge id=":1864382694_39" function="internal">
        <lane id=":1864382694_39_0" index="0" disallow="tram rail_urban rail rail_electric rail_fast ship" speed="3.65" length="3.23" shape="68.61,52.92 67.72,53.03 67.10,52.38 66.76,50.98"/>
    </edge>
    <edge id=":1864382694_7" function="internal">
        <lane id=":1864382694_7_0" index="0" disallow="tram rail_urban rail rail_electric rail_fast ship" speed="13.89" length="17.40" shape="69.77,52.07 68.51,55.99 67.30,60.40 66.20,64.85 65.26,68.87"/>
    </edge>
    <edge id=":1864382694_8" function="internal">
        <lane id=":1864382694_8_0" index="0" disallow="tram rail_urban rail rail_electric rail_fast ship" speed="13.89" length="17.40" shape="69.77,52.07 68.62,55.48 67.62,59.05 66.56,63.33 65.26,68.87"/>
    </edge>
    <edge id=":1864382694_9" function="internal">
        <lane id=":1864382694_9_0" index="0" disallow="tram rail_urban rail rail_electric rail_fast ship" speed="13.89" length="18.10" shape="69.77,52.07 67.67,55.65 64.42,59.16 60.73,62.35 57.32,64.95"/>
    </edge>
    <edge id=":1864382694_10" function="internal">
        <lane id=":1864382694_10_0" index="0" disallow="tram rail_urban rail rail_electric rail_fast ship" speed="13.89" length="18.10" shape="69.77,52.07 67.67,55.65 64.42,59.16 60.73,62.35 57.32,64.95"/>
    </edge>
    <edge id=":1864382694_11" function="internal">
        <lane id=":1864382694_11_0" index="0" disallow="tram rail_urban rail rail_electric rail_fast ship" speed="3.65" length="4.67" shape="69.77,52.07 68.61,52.92 67.72,53.03 67.10,52.38 66.76,50.98"/>
    </edge>
    <edge id=":1864382694_12" function="internal">
        <lane id=":1864382694_12_0" index="0" disallow="tram rail_urban rail rail_electric rail_fast ship" speed="3.24" length="3.20" shape="69.77,52.07 66.76,50.98"/>
    </edge>
    <edge id=":1864382694_13" function="internal">
        <lane id=":1864382694_13_0" index="0" disallow="tram rail_urban rail rail_electric rail_fast ship" speed="13.89" length="16.27" shape="55.43,62.37 58.66,60.00 61.97,57.33 64.84,54.33 66.76,50.98"/>
    </edge>
    <edge id=":1864382694_14" function="internal">
        <lane id=":1864382694_14_0" index="0" disallow="tram rail_urban rail rail_electric rail_fast ship" speed="13.89" length="16.27" shape="55.43,62.37 58.66,60.00 61.97,57.33 64.84,54.33 66.76,50.98"/>
    </edge>
    <edge id=":1864382694_15" function="internal">
        <lane id=":1864382694_15_0" index="0" disallow="tram rail_urban rail rail_electric rail_fast ship" speed="7.49" length="20.40" shape="55.43,62.37 61.17,59.02 64.73,58.99 66.09,62.27 65.26,68.87"/>
    </edge>
    <edge id=":1864382694_16" function="internal">
        <lane id=":1864382694_16_0" index="0" disallow="tram rail_urban rail rail_electric rail_fast ship" speed="7.49" length="20.40" shape="55.43,62.37 61.17,59.02 64.73,58.99 66.09,62.27 65.26,68.87"/>
    </edge>
    <edge id=":1864382694_17" function="internal">
        <lane id=":1864382694_17_0" index="0" disallow="tram rail_urban rail rail_electric rail_fast ship" speed="3.24" length="3.20" shape="55.43,62.37 57.32,64.95"/>
    </edge>
    <edge id=":1864382694_18" function="internal">
        <lane id=":1864382694_18_0" index="0" disallow="tram rail_urban rail rail_electric rail_fast ship" speed="3.65" length="4.67" shape="55.43,62.37 56.87,62.30 57.67,62.71 57.82,63.60 57.32,64.95"/>
    </edge>
    <edge id=":1864382694_19" function="internal">
        <lane id=":1864382694_19_0" index="0" disallow="tram rail_urban rail rail_electric rail_fast ship" speed="13.89" length="16.27" shape="55.43,62.37 58.66,60.00 61.97,57.33 64.84,54.33 66.76,50.98"/>
    </edge>
    <edge id=":1864382694_20" function="internal">
        <lane id=":1864382694_20_0" index="0" disallow="tram rail_urban rail rail_electric rail_fast ship" speed="13.89" length="16.27" shape="55.43,62.37 58.66,60.00 61.97,57.33 64.84,54.33 66.76,50.98"/>
    </edge>
    <edge id=":1864382694_21" function="internal">
        <lane id=":1864382694_21_0" index="0" disallow="tram rail_urban rail rail_electric rail_fast ship" speed="7.49" length="20.40" shape="55.43,62.37 61.17,59.02 64.73,58.99 66.09,62.27 65.26,68.87"/>
    </edge>
    <edge id=":1864382694_22" function="internal">
        <lane id=":1864382694_22_0" index="0" disallow="tram rail_urban rail rail_electric rail_fast ship" speed="7.49" length="20.40" shape="55.43,62.37 61.17,59.02 64.73,58.99 66.09,62.27 65.26,68.87"/>
    </edge>
    <edge id=":1864382694_23" function="internal">
        <lane id=":1864382694_23_0" index="0" disallow="tram rail_urban rail rail_electric rail_fast ship" speed="3.65" length="4.67" shape="55.43,62.37 56.87,62.30 57.67,62.71 57.82,63.60 57.32,64.95"/>
    </edge>
    <edge id=":1864382694_24" function="internal">
        <lane id=":1864382694_24_0" index="0" disallow="tram rail_urban rail rail_electric rail_fast ship" speed="3.24" length="3.20" shape="55.43,62.37 57.32,64.95"/>
    </edge>
    <edge id=":1864382694_25" function="internal">
        <lane id=":1864382694_25_0" index="0" disallow="tram rail_urban rail rail_electric rail_fast ship" speed="5.46" length="10.01" shape="62.14,68.14 62.55,64.90 61.88,63.29 60.14,63.31 57.32,64.95"/>
    </edge>
    <edge id=":1864382694_26" function="internal">
        <lane id=":1864382694_26_0" index="0" disallow="tram rail_urban rail rail_electric rail_fast ship" speed="5.46" length="10.01" shape="62.14,68.14 62.55,64.90 61.88,63.29 60.14,63.31 57.32,64.95"/>
    </edge>
    <edge id=":1864382694_27" function="internal">
        <lane id=":1864382694_27_0" index="0" disallow="tram rail_urban rail rail_electric rail_fast ship" speed="13.89" length="17.78" shape="62.14,68.14 63.10,64.06 64.24,59.49 65.48,54.96 66.76,50.98"/>
    </edge>
    <edge id=":1864382694_28" function="internal">
        <lane id=":1864382694_28_0" index="0" disallow="tram rail_urban rail rail_electric rail_fast ship" speed="13.89" length="17.78" shape="62.14,68.14 63.10,64.06 64.24,59.49 65.48,54.96 66.76,50.98"/>
    </edge>
    <edge id=":1864382694_29" function="internal">
        <lane id=":1864382694_29_0" index="0" disallow="tram rail_urban rail rail_electric rail_fast ship" speed="3.24" length="1.59" shape="62.14,68.14 63.69,68.50"/>
    </edge>
    <edge id=":1864382694_30" function="internal">
        <lane id=":1864382694_30_0" index="0" disallow="tram rail_urban rail rail_electric rail_fast ship" speed="3.65" length="1.44" shape="62.14,68.14 63.19,67.15"/>
    </edge>
    <edge id=":1864382694_40" function="internal">
        <lane id=":1864382694_40_0" index="0" disallow="tram rail_urban rail rail_electric rail_fast ship" speed="3.24" length="1.61" shape="63.69,68.50 65.26,68.87"/>
    </edge>
    <edge id=":1864382694_41" function="internal">
        <lane id=":1864382694_41_0" index="0" disallow="tram rail_urban rail rail_electric rail_fast ship" speed="3.65" length="3.23" shape="63.19,67.15 64.06,66.94 64.75,67.52 65.26,68.87"/>
    </edge>
    <edge id=":1864382694_31" function="internal">
        <lane id=":1864382694_31_0" index="0" disallow="tram rail_urban rail rail_electric rail_fast ship" speed="5.46" length="10.01" shape="62.14,68.14 62.55,64.90 61.88,63.29 60.14,63.31 57.32,64.95"/>
    </edge>
    <edge id=":1864382694_32" function="internal">
        <lane id=":1864382694_32_0" index="0" disallow="tram rail_urban rail rail_electric rail_fast ship" speed="5.46" length="10.01" shape="62.14,68.14 62.55,64.90 61.88,63.29 60.14,63.31 57.32,64.95"/>
    </edge>
    <edge id=":1864382694_33" function="internal">
        <lane id=":1864382694_33_0" index="0" disallow="tram rail_urban rail rail_electric rail_fast ship" speed="13.89" length="17.78" shape="62.14,68.14 63.10,64.06 64.24,59.49 65.48,54.96 66.76,50.98"/>
    </edge>
    <edge id=":1864382694_34" function="internal">
        <lane id=":1864382694_34_0" index="0" disallow="tram rail_urban rail rail_electric rail_fast ship" speed="13.89" length="17.78" shape="62.14,68.14 63.10,64.06 64.24,59.49 65.48,54.96 66.76,50.98"/>
    </edge>
    <edge id=":1864382694_35" function="internal">
        <lane id=":1864382694_35_0" index="0" disallow="tram rail_urban rail rail_electric rail_fast ship" speed="3.65" length="4.67" shape="62.14,68.14 63.19,67.15 64.06,66.94 64.75,67.52 65.26,68.87"/>
    </edge>
    <edge id=":1864382694_36" function="internal">
        <lane id=":1864382694_36_0" index="0" disallow="tram rail_urban rail rail_electric rail_fast ship" speed="4.08" length="6.40" shape="62.14,68.14 68.37,69.59"/>
    </edge>
    <edge id=":1864382713_0" function="internal">
        <lane id=":1864382713_0_0" index="0" disallow="tram rail_urban rail rail_electric rail_fast ship" speed="13.89" length="3.55" shape="155.14,17.28 154.25,16.72 153.60,16.39 152.91,16.16 151.89,15.93"/>
    </edge>
    <edge id=":1864382713_1" function="internal">
        <lane id=":1864382713_1_0" index="0" disallow="tram rail_urban rail rail_electric rail_fast ship" speed="13.89" length="3.55" shape="155.14,17.28 154.25,16.72 153.60,16.39 152.91,16.16 151.89,15.93"/>
    </edge>
    <edge id=":1864382713_2" function="internal">
        <lane id=":1864382713_2_0" index="0" disallow="tram rail_urban rail rail_electric rail_fast ship" speed="3.24" length="1.59" shape="155.14,17.28 156.00,15.94"/>
    </edge>
    <edge id=":1864382713_3" function="internal">
        <lane id=":1864382713_3_0" index="0" disallow="tram rail_urban rail rail_electric rail_fast ship" speed="3.65" length="1.44" shape="155.14,17.28 154.56,15.96"/>
    </edge>
    <edge id=":1864382713_16" function="internal">
        <lane id=":1864382713_16_0" index="0" disallow="tram rail_urban rail rail_electric rail_fast ship" speed="3.24" length="1.61" shape="156.00,15.94 156.87,14.59"/>
    </edge>
    <edge id=":1864382713_17" function="internal">
        <lane id=":1864382713_17_0" index="0" disallow="tram rail_urban rail rail_electric rail_fast ship" speed="3.65" length="3.23" shape="154.56,15.96 154.66,15.07 155.43,14.61 156.87,14.59"/>
    </edge>
    <edge id=":1864382713_4" function="internal">
        <lane id=":1864382713_4_0" index="0" disallow="tram rail_urban rail rail_electric rail_fast ship" speed="13.89" length="3.55" shape="155.14,17.28 154.25,16.72 153.60,16.39 152.91,16.16 151.89,15.93"/>
    </edge>
    <edge id=":1864382713_5" function="internal">
        <lane id=":1864382713_5_0" index="0" disallow="tram rail_urban rail rail_electric rail_fast ship" speed="13.89" length="3.55" shape="155.14,17.28 154.25,16.72 153.60,16.39 152.91,16.16 151.89,15.93"/>
    </edge>
    <edge id=":1864382713_6" function="internal">
        <lane id=":1864382713_6_0" index="0" disallow="tram rail_urban rail rail_electric rail_fast ship" speed="3.65" length="4.67" shape="155.14,17.28 154.56,15.96 154.66,15.07 155.43,14.61 156.87,14.59"/>
    </edge>
    <edge id=":1864382713_7" function="internal">
        <lane id=":1864382713_7_0" index="0" disallow="tram rail_urban rail rail_electric rail_fast ship" speed="3.24" length="3.20" shape="155.14,17.28 156.87,14.59"/>
    </edge>
    <edge id=":1864382713_8" function="internal">
        <lane id=":1864382713_8_0" index="0" disallow="tram rail_urban rail rail_electric rail_fast ship" speed="13.89" length="4.70" shape="152.58,12.80 153.93,13.11 154.84,13.41 155.70,13.85 156.87,14.59"/>
    </edge>
    <edge id=":1864382713_9" function="internal">
        <lane id=":1864382713_9_0" index="0" disallow="tram rail_urban rail rail_electric rail_fast ship" speed="13.89" length="4.70" shape="152.58,12.80 153.93,13.11 154.84,13.41 155.70,13.85 156.87,14.59"/>
    </edge>
    <edge id=":1864382713_10" function="internal">
        <lane id=":1864382713_10_0" index="0" disallow="tram rail_urban rail rail_electric rail_fast ship" speed="3.24" length="1.61" shape="152.58,12.80 152.23,14.37"/>
    </edge>
    <edge id=":1864382713_11" function="internal">
        <lane id=":1864382713_11_0" index="0" disallow="tram rail_urban rail rail_electric rail_fast ship" speed="3.65" length="1.44" shape="152.58,12.80 153.58,13.84"/>
    </edge>
    <edge id=":1864382713_18" function="internal">
        <lane id=":1864382713_18_0" index="0" disallow="tram rail_urban rail rail_electric rail_fast ship" speed="3.24" length="1.59" shape="152.23,14.37 151.89,15.93"/>
    </edge>
    <edge id=":1864382713_19" function="internal">
        <lane id=":1864382713_19_0" index="0" disallow="tram rail_urban rail rail_electric rail_fast ship" speed="3.65" length="3.23" shape="153.58,13.84 153.80,14.71 153.23,15.40 151.89,15.93"/>
    </edge>
    <edge id=":1864382713_12" function="internal">
        <lane id=":1864382713_12_0" index="0" disallow="tram rail_urban rail rail_electric rail_fast ship" speed="13.89" length="4.70" shape="152.58,12.80 153.93,13.11 154.84,13.41 155.70,13.85 156.87,14.59"/>
    </edge>
    <edge id=":1864382713_13" function="internal">
        <lane id=":1864382713_13_0" index="0" disallow="tram rail_urban rail rail_electric rail_fast ship" speed="13.89" length="4.70" shape="152.58,12.80 153.93,13.11 154.84,13.41 155.70,13.85 156.87,14.59"/>
    </edge>
    <edge id=":1864382713_14" function="internal">
        <lane id=":1864382713_14_0" index="0" disallow="tram rail_urban rail rail_electric rail_fast ship" speed="3.65" length="4.67" shape="152.58,12.80 153.58,13.84 153.80,14.71 153.23,15.40 151.89,15.93"/>
    </edge>
    <edge id=":1864382713_15" function="internal">
        <lane id=":1864382713_15_0" index="0" disallow="tram rail_urban rail rail_electric rail_fast ship" speed="3.24" length="3.20" shape="152.58,12.80 151.89,15.93"/>
    </edge>
    <edge id=":1864382973_0" function="internal">
        <lane id=":1864382973_0_0" index="0" disallow="tram rail_urban rail rail_electric rail_fast ship" speed="13.89" length="17.76" shape="42.46,88.47 36.79,87.35 32.53,85.79 28.99,84.33 25.47,83.49"/>
    </edge>
    <edge id=":1864382973_1" function="internal">
        <lane id=":1864382973_1_0" index="0" disallow="tram rail_urban rail rail_electric rail_fast ship" speed="13.89" length="17.40" shape="42.46,88.47 25.18,86.68"/>
        <lane id=":1864382973_1_1" index="1" disallow="tram rail_urban rail rail_electric rail_fast ship" speed="13.89" length="17.40" shape="42.80,85.29 25.47,83.49"/>
    </edge>
    <edge id=":1864382973_3" function="internal">
        <lane id=":1864382973_3_0" index="0" disallow="tram rail_urban rail rail_electric rail_fast ship" speed="7.46" length="6.22" shape="42.80,85.29 36.73,83.96"/>
    </edge>
    <edge id=":1864382973_4" function="internal">
        <lane id=":1864382973_4_0" index="0" disallow="tram rail_urban rail rail_electric rail_fast ship" speed="7.46" length="6.22" shape="42.80,85.29 36.73,83.96"/>
    </edge>
    <edge id=":1864382973_5" function="internal">
        <lane id=":1864382973_5_0" index="0" disallow="tram rail_urban rail rail_electric rail_fast ship" speed="3.24" length="1.60" shape="42.80,85.29 42.98,83.70"/>
    </edge>
    <edge id=":1864382973_6" function="internal">
        <lane id=":1864382973_6_0" index="0" disallow="tram rail_urban rail rail_electric rail_fast ship" speed="3.65" length="1.44" shape="42.80,85.29 41.70,84.36"/>
    </edge>
    <edge id=":1864382973_37" function="internal">
        <lane id=":1864382973_37_0" index="0" disallow="tram rail_urban rail rail_electric rail_fast ship" speed="7.46" length="13.72" shape="36.73,83.96 36.51,83.91 33.90,81.54 34.98,78.19 39.74,73.85"/>
    </edge>
    <edge id=":1864382973_38" function="internal">
        <lane id=":1864382973_38_0" index="0" disallow="tram rail_urban rail rail_electric rail_fast ship" speed="7.46" length="13.72" shape="36.73,83.96 36.51,83.91 33.90,81.54 34.98,78.19 39.74,73.85"/>
    </edge>
    <edge id=":1864382973_39" function="internal">
        <lane id=":1864382973_39_0" index="0" disallow="tram rail_urban rail rail_electric rail_fast ship" speed="3.24" length="1.60" shape="42.98,83.70 43.15,82.11"/>
    </edge>
    <edge id=":1864382973_40" function="internal">
        <lane id=":1864382973_40_0" index="0" disallow="tram rail_urban rail rail_electric rail_fast ship" speed="3.65" length="3.23" shape="41.70,84.36 41.39,83.52 41.87,82.77 43.15,82.11"/>
    </edge>
    <edge id=":1864382973_7" function="internal">
        <lane id=":1864382973_7_0" index="0" disallow="tram rail_urban rail rail_electric rail_fast ship" speed="13.89" length="17.43" shape="42.80,85.29 25.47,83.49"/>
    </edge>
    <edge id=":1864382973_8" function="internal">
        <lane id=":1864382973_8_0" index="0" disallow="tram rail_urban rail rail_electric rail_fast ship" speed="13.89" length="17.43" shape="42.80,85.29 25.47,83.49"/>
    </edge>
    <edge id=":1864382973_9" function="internal">