<?xml version="1.0" encoding="UTF-8"?>

<!-- generated on 2024-05-19 13:05:50 by Eclipse SUMO netedit Version 1.18.0
<configuration xmlns:xsi="http://www.w3.org/2001/XMLSchema-instance" xsi:noNamespaceSchemaLocation="http://sumo.dlr.de/xsd/neteditConfiguration.xsd">

    <input>
        <sumo-net-file value="C:\Users\colla\Documents\GitHub\AITrafficLab\test\Cuadricula.net.xml"/>
    </input>

    <output>
        <output-file value="C:\Users\colla\Documents\GitHub\AITrafficLab\test\Cuadricula.net.xml"/>
    </output>

    <processing>
        <geometry.min-radius.fix.railways value="false"/>
        <geometry.max-grade.fix value="false"/>
        <offset.disable-normalization value="true"/>
        <lefthand value="0"/>
    </processing>

    <junctions>
        <no-turnarounds value="true"/>
        <junctions.corner-detail value="5"/>
        <junctions.limit-turn-speed value="5.50"/>
        <rectangular-lane-cut value="0"/>
    </junctions>

    <pedestrian>
        <walkingareas value="0"/>
    </pedestrian>

</configuration>
-->

<net version="1.16" junctionCornerDetail="5" limitTurnSpeed="5.50" xmlns:xsi="http://www.w3.org/2001/XMLSchema-instance" xsi:noNamespaceSchemaLocation="http://sumo.dlr.de/xsd/net_file.xsd">

    <location netOffset="0.00,0.00" convBoundary="-100.00,-300.00,500.00,100.00" origBoundary="-10000000000.00,-10000000000.00,10000000000.00,10000000000.00" projParameter="!"/>

    <edge id=":0_0" function="internal">
        <lane id=":0_0_0" index="0" speed="8.00" length="4.07" shape="7.20,101.60 3.35,101.05 3.20,100.96"/>
    </edge>
    <edge id=":0_4" function="internal">
        <lane id=":0_4_0" index="0" speed="8.00" length="10.13" shape="3.20,100.96 0.60,99.40 -1.05,96.65 -1.60,92.80"/>
    </edge>
    <edge id=":0_1" function="internal">
        <lane id=":0_1_0" index="0" speed="6.51" length="9.03" shape="1.60,92.80 1.95,95.25 3.00,97.00 4.75,98.05 7.20,98.40"/>
    </edge>
    <edge id=":0_2" function="internal">
        <lane id=":0_2_0" index="0" speed="6.51" length="9.03" shape="-7.20,98.40 -4.75,98.05 -3.00,97.00 -1.95,95.25 -1.60,92.80"/>
    </edge>
    <edge id=":0_3" function="internal">
        <lane id=":0_3_0" index="0" speed="13.89" length="14.40" shape="-7.20,98.40 7.20,98.40"/>
    </edge>
    <edge id=":1_0" function="internal">
        <lane id=":1_0_0" index="0" speed="13.89" length="14.40" shape="107.20,101.60 92.80,101.60"/>
    </edge>
    <edge id=":1_1" function="internal">
        <lane id=":1_1_0" index="0" speed="8.00" length="4.07" shape="107.20,101.60 103.35,101.05 103.20,100.96"/>
    </edge>
    <edge id=":1_6" function="internal">
        <lane id=":1_6_0" index="0" speed="8.00" length="10.13" shape="103.20,100.96 100.60,99.40 98.95,96.65 98.40,92.80"/>
    </edge>
    <edge id=":1_2" function="internal">
        <lane id=":1_2_0" index="0" speed="6.51" length="9.03" shape="101.60,92.80 101.95,95.25 103.00,97.00 104.75,98.05 107.20,98.40"/>
    </edge>
    <edge id=":1_3" function="internal">
        <lane id=":1_3_0" index="0" speed="8.00" length="14.19" shape="101.60,92.80 101.05,96.65 99.40,99.40 96.65,101.05 92.80,101.60"/>
    </edge>
    <edge id=":1_4" function="internal">
        <lane id=":1_4_0" index="0" speed="6.51" length="9.03" shape="92.80,98.40 95.25,98.05 97.00,97.00 98.05,95.25 98.40,92.80"/>
    </edge>
    <edge id=":1_5" function="internal">
        <lane id=":1_5_0" index="0" speed="13.89" length="14.40" shape="92.80,98.40 107.20,98.40"/>
    </edge>
    <edge id=":10_0" function="internal">
        <lane id=":10_0_0" index="0" speed="6.51" length="9.03" shape="-1.60,-86.40 -1.95,-88.85 -3.00,-90.60 -4.75,-91.65 -7.20,-92.00"/>
    </edge>
    <edge id=":10_1" function="internal">
        <lane id=":10_1_0" index="0" speed="13.89" length="27.20" shape="-1.60,-86.40 -1.60,-113.60"/>
    </edge>
    <edge id=":10_2" function="internal">
        <lane id=":10_2_0" index="0" speed="9.32" length="19.63" shape="-1.60,-86.40 -1.05,-93.05 0.60,-97.80 3.35,-100.65 7.20,-101.60"/>
    </edge>
    <edge id=":10_3" function="internal">
        <lane id=":10_3_0" index="0" speed="6.51" length="9.03" shape="7.20,-92.00 4.75,-91.65 3.00,-90.60 1.95,-88.85 1.60,-86.40"/>
    </edge>
    <edge id=":10_4" function="internal">
        <lane id=":10_4_0" index="0" speed="13.89" length="14.40" shape="7.20,-92.00 -7.20,-92.00"/>
        <lane id=":10_4_1" index="1" speed="13.89" length="14.40" shape="7.20,-95.20 -7.20,-95.20"/>
        <lane id=":10_4_2" index="2" speed="13.89" length="14.40" shape="7.20,-98.40 -7.20,-98.40"/>
    </edge>
    <edge id=":10_7" function="internal">
        <lane id=":10_7_0" index="0" speed="9.32" length="3.03" shape="7.20,-98.40 4.26,-99.13"/>
    </edge>
    <edge id=":10_16" function="internal">
        <lane id=":10_16_0" index="0" speed="9.32" length="16.60" shape="4.26,-99.13 3.35,-99.35 0.60,-102.20 -1.05,-106.95 -1.60,-113.60"/>
    </edge>
    <edge id=":10_8" function="internal">
        <lane id=":10_8_0" index="0" speed="6.51" length="9.03" shape="1.60,-113.60 1.95,-111.15 3.00,-109.40 4.75,-108.35 7.20,-108.00"/>
    </edge>
    <edge id=":10_9" function="internal">
        <lane id=":10_9_0" index="0" speed="13.89" length="27.20" shape="1.60,-113.60 1.60,-86.40"/>
    </edge>
    <edge id=":10_10" function="internal">
        <lane id=":10_10_0" index="0" speed="9.32" length="19.63" shape="1.60,-113.60 1.05,-106.95 -0.60,-102.20 -3.35,-99.35 -7.20,-98.40"/>
    </edge>
    <edge id=":10_11" function="internal">
        <lane id=":10_11_0" index="0" speed="6.51" length="9.03" shape="-7.20,-108.00 -4.75,-108.35 -3.00,-109.40 -1.95,-111.15 -1.60,-113.60"/>
    </edge>
    <edge id=":10_12" function="internal">
        <lane id=":10_12_0" index="0" speed="13.89" length="14.40" shape="-7.20,-108.00 7.20,-108.00"/>
        <lane id=":10_12_1" index="1" speed="13.89" length="14.40" shape="-7.20,-104.80 7.20,-104.80"/>
        <lane id=":10_12_2" index="2" speed="13.89" length="14.40" shape="-7.20,-101.60 7.20,-101.60"/>
    </edge>
    <edge id=":10_15" function="internal">
        <lane id=":10_15_0" index="0" speed="9.32" length="3.03" shape="-7.20,-101.60 -4.26,-100.87"/>
    </edge>
    <edge id=":10_17" function="internal">
        <lane id=":10_17_0" index="0" speed="9.32" length="16.60" shape="-4.26,-100.87 -3.35,-100.65 -0.60,-97.80 1.05,-93.05 1.60,-86.40"/>
    </edge>
    <edge id=":11_0" function="internal">
        <lane id=":11_0_0" index="0" speed="6.51" length="9.03" shape="98.40,-86.40 98.05,-88.85 97.00,-90.60 95.25,-91.65 92.80,-92.00"/>
    </edge>
    <edge id=":11_1" function="internal">
        <lane id=":11_1_0" index="0" speed="13.89" length="27.20" shape="98.40,-86.40 98.40,-113.60"/>
    </edge>
    <edge id=":11_2" function="internal">
        <lane id=":11_2_0" index="0" speed="9.32" length="19.63" shape="98.40,-86.40 98.95,-93.05 100.60,-97.80 103.35,-100.65 107.20,-101.60"/>
    </edge>
    <edge id=":11_3" function="internal">
        <lane id=":11_3_0" index="0" speed="6.51" length="9.03" shape="107.20,-92.00 104.75,-91.65 103.00,-90.60 101.95,-88.85 101.60,-86.40"/>
    </edge>
    <edge id=":11_4" function="internal">
        <lane id=":11_4_0" index="0" speed="13.89" length="14.40" shape="107.20,-92.00 92.80,-92.00"/>
        <lane id=":11_4_1" index="1" speed="13.89" length="14.40" shape="107.20,-95.20 92.80,-95.20"/>
        <lane id=":11_4_2" index="2" speed="13.89" length="14.40" shape="107.20,-98.40 92.80,-98.40"/>
    </edge>
    <edge id=":11_7" function="internal">
        <lane id=":11_7_0" index="0" speed="9.32" length="3.03" shape="107.20,-98.40 104.26,-99.13"/>
    </edge>
    <edge id=":11_16" function="internal">
        <lane id=":11_16_0" index="0" speed="9.32" length="16.60" shape="104.26,-99.13 103.35,-99.35 100.60,-102.20 98.95,-106.95 98.40,-113.60"/>
    </edge>
    <edge id=":11_8" function="internal">
        <lane id=":11_8_0" index="0" speed="6.51" length="9.03" shape="101.60,-113.60 101.95,-111.15 103.00,-109.40 104.75,-108.35 107.20,-108.00"/>
    </edge>
    <edge id=":11_9" function="internal">
        <lane id=":11_9_0" index="0" speed="13.89" length="27.20" shape="101.60,-113.60 101.60,-86.40"/>
    </edge>
    <edge id=":11_10" function="internal">
        <lane id=":11_10_0" index="0" speed="9.32" length="19.63" shape="101.60,-113.60 101.05,-106.95 99.40,-102.20 96.65,-99.35 92.80,-98.40"/>
    </edge>
    <edge id=":11_11" function="internal">
        <lane id=":11_11_0" index="0" speed="6.51" length="9.03" shape="92.80,-108.00 95.25,-108.35 97.00,-109.40 98.05,-111.15 98.40,-113.60"/>
    </edge>
    <edge id=":11_12" function="internal">
        <lane id=":11_12_0" index="0" speed="13.89" length="14.40" shape="92.80,-108.00 107.20,-108.00"/>
        <lane id=":11_12_1" index="1" speed="13.89" length="14.40" shape="92.80,-104.80 107.20,-104.80"/>
        <lane id=":11_12_2" index="2" speed="13.89" length="14.40" shape="92.80,-101.60 107.20,-101.60"/>
    </edge>
    <edge id=":11_15" function="internal">
        <lane id=":11_15_0" index="0" speed="9.32" length="3.03" shape="92.80,-101.60 95.74,-100.87"/>
    </edge>
    <edge id=":11_17" function="internal">
        <lane id=":11_17_0" index="0" speed="9.32" length="16.60" shape="95.74,-100.87 96.65,-100.65 99.40,-97.80 101.05,-93.05 101.60,-86.40"/>
    </edge>
    <edge id=":12_0" function="internal">
        <lane id=":12_0_0" index="0" speed="6.51" length="9.03" shape="195.20,-86.40 194.85,-88.85 193.80,-90.60 192.05,-91.65 189.60,-92.00"/>
    </edge>
    <edge id=":12_1" function="internal">
        <lane id=":12_1_0" index="0" speed="13.89" length="27.20" shape="195.20,-86.40 195.20,-113.60"/>
        <lane id=":12_1_1" index="1" speed="13.89" length="27.20" shape="198.40,-86.40 198.40,-113.60"/>
    </edge>
    <edge id=":12_3" function="internal">
        <lane id=":12_3_0" index="0" speed="9.84" length="21.99" shape="198.40,-86.40 199.15,-93.05 201.40,-97.80 205.15,-100.65 210.40,-101.60"/>
    </edge>
    <edge id=":12_4" function="internal">
        <lane id=":12_4_0" index="0" speed="6.51" length="9.03" shape="210.40,-92.00 207.95,-91.65 206.20,-90.60 205.15,-88.85 204.80,-86.40"/>
    </edge>
    <edge id=":12_5" function="internal">
        <lane id=":12_5_0" index="0" speed="13.89" length="20.80" shape="210.40,-92.00 189.60,-92.00"/>
        <lane id=":12_5_1" index="1" speed="13.89" length="20.80" shape="210.40,-95.20 189.60,-95.20"/>
        <lane id=":12_5_2" index="2" speed="13.89" length="20.80" shape="210.40,-98.40 189.60,-98.40"/>
    </edge>
    <edge id=":12_8" function="internal">
        <lane id=":12_8_0" index="0" speed="9.84" length="4.01" shape="210.40,-98.40 206.45,-99.11"/>
    </edge>
    <edge id=":12_18" function="internal">
        <lane id=":12_18_0" index="0" speed="9.84" length="17.98" shape="206.45,-99.11 205.15,-99.35 201.40,-102.20 199.15,-106.95 198.40,-113.60"/>
    </edge>
    <edge id=":12_9" function="internal">
        <lane id=":12_9_0" index="0" speed="6.51" length="9.03" shape="204.80,-113.60 205.15,-111.15 206.20,-109.40 207.95,-108.35 210.40,-108.00"/>
    </edge>
    <edge id=":12_10" function="internal">
        <lane id=":12_10_0" index="0" speed="13.89" length="27.20" shape="204.80,-113.60 204.80,-86.40"/>
        <lane id=":12_10_1" index="1" speed="13.89" length="27.20" shape="201.60,-113.60 201.60,-86.40"/>
    </edge>
    <edge id=":12_12" function="internal">
        <lane id=":12_12_0" index="0" speed="9.84" length="21.99" shape="201.60,-113.60 200.85,-106.95 198.60,-102.20 194.85,-99.35 189.60,-98.40"/>
    </edge>
    <edge id=":12_13" function="internal">
        <lane id=":12_13_0" index="0" speed="6.51" length="9.03" shape="189.60,-108.00 192.05,-108.35 193.80,-109.40 194.85,-111.15 195.20,-113.60"/>
    </edge>
    <edge id=":12_14" function="internal">
        <lane id=":12_14_0" index="0" speed="13.89" length="20.80" shape="189.60,-108.00 210.40,-108.00"/>
        <lane id=":12_14_1" index="1" speed="13.89" length="20.80" shape="189.60,-104.80 210.40,-104.80"/>
        <lane id=":12_14_2" index="2" speed="13.89" length="20.80" shape="189.60,-101.60 210.40,-101.60"/>
    </edge>
    <edge id=":12_17" function="internal">
        <lane id=":12_17_0" index="0" speed="9.84" length="4.01" shape="189.60,-101.60 193.55,-100.89"/>
    </edge>
    <edge id=":12_19" function="internal">
        <lane id=":12_19_0" index="0" speed="9.84" length="17.98" shape="193.55,-100.89 194.85,-100.65 198.60,-97.80 200.85,-93.05 201.60,-86.40"/>
    </edge>
    <edge id=":13_0" function="internal">
        <lane id=":13_0_0" index="0" speed="6.51" length="9.03" shape="298.40,-86.40 298.05,-88.85 297.00,-90.60 295.25,-91.65 292.80,-92.00"/>
    </edge>
    <edge id=":13_1" function="internal">
        <lane id=":13_1_0" index="0" speed="13.89" length="27.20" shape="298.40,-86.40 298.40,-113.60"/>
    </edge>
    <edge id=":13_2" function="internal">
        <lane id=":13_2_0" index="0" speed="9.32" length="19.63" shape="298.40,-86.40 298.95,-93.05 300.60,-97.80 303.35,-100.65 307.20,-101.60"/>
    </edge>
    <edge id=":13_3" function="internal">
        <lane id=":13_3_0" index="0" speed="6.51" length="9.03" shape="307.20,-92.00 304.75,-91.65 303.00,-90.60 301.95,-88.85 301.60,-86.40"/>
    </edge>
    <edge id=":13_4" function="internal">
        <lane id=":13_4_0" index="0" speed="13.89" length="14.40" shape="307.20,-92.00 292.80,-92.00"/>
        <lane id=":13_4_1" index="1" speed="13.89" length="14.40" shape="307.20,-95.20 292.80,-95.20"/>
        <lane id=":13_4_2" index="2" speed="13.89" length="14.40" shape="307.20,-98.40 292.80,-98.40"/>
    </edge>
    <edge id=":13_7" function="internal">
        <lane id=":13_7_0" index="0" speed="9.32" length="3.03" shape="307.20,-98.40 304.26,-99.13"/>
    </edge>
    <edge id=":13_16" function="internal">
        <lane id=":13_16_0" index="0" speed="9.32" length="16.60" shape="304.26,-99.13 303.35,-99.35 300.60,-102.20 298.95,-106.95 298.40,-113.60"/>
    </edge>
    <edge id=":13_8" function="internal">
        <lane id=":13_8_0" index="0" speed="6.51" length="9.03" shape="301.60,-113.60 301.95,-111.15 303.00,-109.40 304.75,-108.35 307.20,-108.00"/>
    </edge>
    <edge id=":13_9" function="internal">
        <lane id=":13_9_0" index="0" speed="13.89" length="27.20" shape="301.60,-113.60 301.60,-86.40"/>
    </edge>
    <edge id=":13_10" function="internal">
        <lane id=":13_10_0" index="0" speed="9.32" length="19.63" shape="301.60,-113.60 301.05,-106.95 299.40,-102.20 296.65,-99.35 292.80,-98.40"/>
    </edge>
    <edge id=":13_11" function="internal">
        <lane id=":13_11_0" index="0" speed="6.51" length="9.03" shape="292.80,-108.00 295.25,-108.35 297.00,-109.40 298.05,-111.15 298.40,-113.60"/>
    </edge>
    <edge id=":13_12" function="internal">
        <lane id=":13_12_0" index="0" speed="13.89" length="14.40" shape="292.80,-108.00 307.20,-108.00"/>
        <lane id=":13_12_1" index="1" speed="13.89" length="14.40" shape="292.80,-104.80 307.20,-104.80"/>
        <lane id=":13_12_2" index="2" speed="13.89" length="14.40" shape="292.80,-101.60 307.20,-101.60"/>
    </edge>
    <edge id=":13_15" function="internal">
        <lane id=":13_15_0" index="0" speed="9.32" length="3.03" shape="292.80,-101.60 295.74,-100.87"/>
    </edge>
    <edge id=":13_17" function="internal">
        <lane id=":13_17_0" index="0" speed="9.32" length="16.60" shape="295.74,-100.87 296.65,-100.65 299.40,-97.80 301.05,-93.05 301.60,-86.40"/>
    </edge>
    <edge id=":14_0" function="internal">
        <lane id=":14_0_0" index="0" speed="6.51" length="9.03" shape="398.40,-86.40 398.05,-88.85 397.00,-90.60 395.25,-91.65 392.80,-92.00"/>
    </edge>
    <edge id=":14_1" function="internal">
        <lane id=":14_1_0" index="0" speed="13.89" length="27.20" shape="398.40,-86.40 398.40,-113.60"/>
    </edge>
    <edge id=":14_2" function="internal">
        <lane id=":14_2_0" index="0" speed="9.32" length="19.63" shape="398.40,-86.40 398.95,-93.05 400.60,-97.80 403.35,-100.65 407.20,-101.60"/>
    </edge>
    <edge id=":14_3" function="internal">
        <lane id=":14_3_0" index="0" speed="6.51" length="9.03" shape="407.20,-92.00 404.75,-91.65 403.00,-90.60 401.95,-88.85 401.60,-86.40"/>
    </edge>
    <edge id=":14_4" function="internal">
        <lane id=":14_4_0" index="0" speed="13.89" length="14.40" shape="407.20,-92.00 392.80,-92.00"/>
        <lane id=":14_4_1" index="1" speed="13.89" length="14.40" shape="407.20,-95.20 392.80,-95.20"/>
        <lane id=":14_4_2" index="2" speed="13.89" length="14.40" shape="407.20,-98.40 392.80,-98.40"/>
    </edge>
    <edge id=":14_7" function="internal">
        <lane id=":14_7_0" index="0" speed="9.32" length="3.03" shape="407.20,-98.40 404.26,-99.13"/>
    </edge>
    <edge id=":14_16" function="internal">
        <lane id=":14_16_0" index="0" speed="9.32" length="16.60" shape="404.26,-99.13 403.35,-99.35 400.60,-102.20 398.95,-106.95 398.40,-113.60"/>
    </edge>
    <edge id=":14_8" function="internal">
        <lane id=":14_8_0" index="0" speed="6.51" length="9.03" shape="401.60,-113.60 401.95,-111.15 403.00,-109.40 404.75,-108.35 407.20,-108.00"/>
    </edge>
    <edge id=":14_9" function="internal">
        <lane id=":14_9_0" index="0" speed="13.89" length="27.20" shape="401.60,-113.60 401.60,-86.40"/>
    </edge>
    <edge id=":14_10" function="internal">
        <lane id=":14_10_0" index="0" speed="9.32" length="19.63" shape="401.60,-113.60 401.05,-106.95 399.40,-102.20 396.65,-99.35 392.80,-98.40"/>
    </edge>
    <edge id=":14_11" function="internal">
        <lane id=":14_11_0" index="0" speed="6.51" length="9.03" shape="392.80,-108.00 395.25,-108.35 397.00,-109.40 398.05,-111.15 398.40,-113.60"/>
    </edge>
    <edge id=":14_12" function="internal">
        <lane id=":14_12_0" index="0" speed="13.89" length="14.40" shape="392.80,-108.00 407.20,-108.00"/>
        <lane id=":14_12_1" index="1" speed="13.89" length="14.40" shape="392.80,-104.80 407.20,-104.80"/>
        <lane id=":14_12_2" index="2" speed="13.89" length="14.40" shape="392.80,-101.60 407.20,-101.60"/>
    </edge>
    <edge id=":14_15" function="internal">
        <lane id=":14_15_0" index="0" speed="9.32" length="3.03" shape="392.80,-101.60 395.74,-100.87"/>
    </edge>
    <edge id=":14_17" function="internal">
        <lane id=":14_17_0" index="0" speed="9.32" length="16.60" shape="395.74,-100.87 396.65,-100.65 399.40,-97.80 401.05,-93.05 401.60,-86.40"/>
    </edge>
    <edge id=":15_0" function="internal">
        <lane id=":15_0_0" index="0" speed="13.89" length="19.02" shape="-1.60,-192.80 -0.74,-197.01 1.40,-201.65 4.20,-206.02 7.03,-209.42"/>
    </edge>
    <edge id=":15_1" function="internal">
        <lane id=":15_1_0" index="0" speed="8.93" length="4.73" shape="-1.60,-192.80 -0.77,-196.65 -0.24,-197.23"/>
    </edge>
    <edge id=":15_6" function="internal">
        <lane id=":15_6_0" index="0" speed="8.93" length="13.19" shape="-0.24,-197.23 1.71,-199.40 5.85,-201.05 11.65,-201.60"/>
    </edge>
    <edge id=":15_2" function="internal">
        <lane id=":15_2_0" index="0" speed="7.63" length="12.82" shape="11.65,-198.40 7.25,-198.05 4.11,-197.00 2.23,-195.25 1.60,-192.80"/>
    </edge>
    <edge id=":15_3" function="internal">
        <lane id=":15_3_0" index="0" speed="7.42" length="19.21" shape="11.65,-198.40 5.56,-199.09 2.76,-201.15 3.25,-204.60 7.03,-209.42"/>
    </edge>
    <edge id=":15_4" function="internal">
        <lane id=":15_4_0" index="0" speed="5.48" length="9.72" shape="9.31,-207.17 7.40,-204.73 7.15,-202.99 8.57,-201.95 11.65,-201.60"/>
    </edge>
    <edge id=":15_5" function="internal">
        <lane id=":15_5_0" index="0" speed="13.48" length="16.64" shape="9.31,-207.17 6.63,-204.13 4.14,-200.53 2.31,-196.65 1.60,-192.80"/>
    </edge>
    <edge id=":16_0" function="internal">
        <lane id=":16_0_0" index="0" speed="6.51" length="9.03" shape="98.40,-192.80 98.05,-195.25 97.00,-197.00 95.25,-198.05 92.80,-198.40"/>
    </edge>
    <edge id=":16_1" function="internal">
        <lane id=":16_1_0" index="0" speed="13.89" length="14.40" shape="98.40,-192.80 98.40,-207.20"/>
    </edge>
    <edge id=":16_2" function="internal">
        <lane id=":16_2_0" index="0" speed="8.00" length="4.07" shape="98.40,-192.80 98.95,-196.65 99.04,-196.80"/>
    </edge>
    <edge id=":16_12" function="internal">
        <lane id=":16_12_0" index="0" speed="8.00" length="10.13" shape="99.04,-196.80 100.60,-199.40 103.35,-201.05 107.20,-201.60"/>
    </edge>
    <edge id=":16_3" function="internal">
        <lane id=":16_3_0" index="0" speed="6.51" length="9.03" shape="107.20,-198.40 104.75,-198.05 103.00,-197.00 101.95,-195.25 101.60,-192.80"/>
    </edge>
    <edge id=":16_4" function="internal">
        <lane id=":16_4_0" index="0" speed="13.89" length="14.40" shape="107.20,-198.40 92.80,-198.40"/>
    </edge>
    <edge id=":16_5" function="internal">
        <lane id=":16_5_0" index="0" speed="8.00" length="14.19" shape="107.20,-198.40 103.35,-198.95 100.60,-200.60 98.95,-203.35 98.40,-207.20"/>
    </edge>
    <edge id=":16_6" function="internal">
        <lane id=":16_6_0" index="0" speed="6.51" length="9.03" shape="101.60,-207.20 101.95,-204.75 103.00,-203.00 104.75,-201.95 107.20,-201.60"/>
    </edge>
    <edge id=":16_7" function="internal">
        <lane id=":16_7_0" index="0" speed="13.89" length="14.40" shape="101.60,-207.20 101.60,-192.80"/>
    </edge>
    <edge id=":16_8" function="internal">
        <lane id=":16_8_0" index="0" speed="8.00" length="4.07" shape="101.60,-207.20 101.05,-203.35 100.96,-203.20"/>
    </edge>
    <edge id=":16_13" function="internal">
        <lane id=":16_13_0" index="0" speed="8.00" length="10.13" shape="100.96,-203.20 99.40,-200.60 96.65,-198.95 92.80,-198.40"/>
    </edge>
    <edge id=":16_9" function="internal">
        <lane id=":16_9_0" index="0" speed="6.51" length="9.03" shape="92.80,-201.60 95.25,-201.95 97.00,-203.00 98.05,-204.75 98.40,-207.20"/>
    </edge>
    <edge id=":16_10" function="internal">
        <lane id=":16_10_0" index="0" speed="13.89" length="14.40" shape="92.80,-201.60 107.20,-201.60"/>
    </edge>
    <edge id=":16_11" function="internal">
        <lane id=":16_11_0" index="0" speed="8.00" length="14.19" shape="92.80,-201.60 96.65,-201.05 99.40,-199.40 101.05,-196.65 101.60,-192.80"/>
    </edge>
    <edge id=":17_0" function="internal">
        <lane id=":17_0_0" index="0" speed="6.51" length="9.03" shape="195.20,-192.80 194.85,-195.25 193.80,-197.00 192.05,-198.05 189.60,-198.40"/>
    </edge>
    <edge id=":17_1" function="internal">
        <lane id=":17_1_0" index="0" speed="13.89" length="14.40" shape="195.20,-192.80 195.20,-207.20"/>
        <lane id=":17_1_1" index="1" speed="13.89" length="14.40" shape="198.40,-192.80 198.40,-207.20"/>
    </edge>
    <edge id=":17_3" function="internal">
        <lane id=":17_3_0" index="0" speed="8.67" length="3.71" shape="198.40,-192.80 199.11,-196.44"/>
    </edge>
    <edge id=":17_14" function="internal">
        <lane id=":17_14_0" index="0" speed="8.67" length="13.14" shape="199.11,-196.44 199.15,-196.65 201.40,-199.40 205.15,-201.05 210.40,-201.60"/>
    </edge>
    <edge id=":17_4" function="internal">
        <lane id=":17_4_0" index="0" speed="6.51" length="9.03" shape="210.40,-198.40 207.95,-198.05 206.20,-197.00 205.15,-195.25 204.80,-192.80"/>
    </edge>
    <edge id=":17_5" function="internal">
        <lane id=":17_5_0" index="0" speed="13.89" length="20.80" shape="210.40,-198.40 189.60,-198.40"/>
    </edge>
    <edge id=":17_6" function="internal">
        <lane id=":17_6_0" index="0" speed="8.67" length="16.85" shape="210.40,-198.40 205.15,-198.95 201.40,-200.60 199.15,-203.35 198.40,-207.20"/>
    </edge>
    <edge id=":17_7" function="internal">
        <lane id=":17_7_0" index="0" speed="6.51" length="9.03" shape="204.80,-207.20 205.15,-204.75 206.20,-203.00 207.95,-201.95 210.40,-201.60"/>
    </edge>
    <edge id=":17_8" function="internal">
        <lane id=":17_8_0" index="0" speed="13.89" length="14.40" shape="204.80,-207.20 204.80,-192.80"/>
        <lane id=":17_8_1" index="1" speed="13.89" length="14.40" shape="201.60,-207.20 201.60,-192.80"/>
    </edge>
    <edge id=":17_10" function="internal">
        <lane id=":17_10_0" index="0" speed="8.67" length="3.71" shape="201.60,-207.20 200.89,-203.56"/>
    </edge>
    <edge id=":17_15" function="internal">
        <lane id=":17_15_0" index="0" speed="8.67" length="13.14" shape="200.89,-203.56 200.85,-203.35 198.60,-200.60 194.85,-198.95 189.60,-198.40"/>
    </edge>
    <edge id=":17_11" function="internal">
        <lane id=":17_11_0" index="0" speed="6.51" length="9.03" shape="189.60,-201.60 192.05,-201.95 193.80,-203.00 194.85,-204.75 195.20,-207.20"/>
    </edge>
    <edge id=":17_12" function="internal">
        <lane id=":17_12_0" index="0" speed="13.89" length="20.80" shape="189.60,-201.60 210.40,-201.60"/>
    </edge>
    <edge id=":17_13" function="internal">
        <lane id=":17_13_0" index="0" speed="8.67" length="16.85" shape="189.60,-201.60 194.85,-201.05 198.60,-199.40 200.85,-196.65 201.60,-192.80"/>
    </edge>
    <edge id=":18_0" function="internal">
        <lane id=":18_0_0" index="0" speed="6.51" length="9.03" shape="298.40,-192.80 298.05,-195.25 297.00,-197.00 295.25,-198.05 292.80,-198.40"/>
    </edge>
    <edge id=":18_1" function="internal">
        <lane id=":18_1_0" index="0" speed="13.89" length="14.40" shape="298.40,-192.80 298.40,-207.20"/>
    </edge>
    <edge id=":18_2" function="internal">
        <lane id=":18_2_0" index="0" speed="8.00" length="4.07" shape="298.40,-192.80 298.95,-196.65 299.04,-196.80"/>
    </edge>
    <edge id=":18_12" function="internal">
        <lane id=":18_12_0" index="0" speed="8.00" length="10.13" shape="299.04,-196.80 300.60,-199.40 303.35,-201.05 307.20,-201.60"/>
    </edge>
    <edge id=":18_3" function="internal">
        <lane id=":18_3_0" index="0" speed="6.51" length="9.03" shape="307.20,-198.40 304.75,-198.05 303.00,-197.00 301.95,-195.25 301.60,-192.80"/>
    </edge>
    <edge id=":18_4" function="internal">
        <lane id=":18_4_0" index="0" speed="13.89" length="14.40" shape="307.20,-198.40 292.80,-198.40"/>
    </edge>
    <edge id=":18_5" function="internal">
        <lane id=":18_5_0" index="0" speed="8.00" length="14.19" shape="307.20,-198.40 303.35,-198.95 300.60,-200.60 298.95,-203.35 298.40,-207.20"/>
    </edge>
    <edge id=":18_6" function="internal">
        <lane id=":18_6_0" index="0" speed="6.51" length="9.03" shape="301.60,-207.20 301.95,-204.75 303.00,-203.00 304.75,-201.95 307.20,-201.60"/>
    </edge>
    <edge id=":18_7" function="internal">
        <lane id=":18_7_0" index="0" speed="13.89" length="14.40" shape="301.60,-207.20 301.60,-192.80"/>
    </edge>
    <edge id=":18_8" function="internal">
        <lane id=":18_8_0" index="0" speed="8.00" length="4.07" shape="301.60,-207.20 301.05,-203.35 300.96,-203.20"/>
    </edge>
    <edge id=":18_13" function="internal">
        <lane id=":18_13_0" index="0" speed="8.00" length="10.13" shape="300.96,-203.20 299.40,-200.60 296.65,-198.95 292.80,-198.40"/>
    </edge>
    <edge id=":18_9" function="internal">
        <lane id=":18_9_0" index="0" speed="6.51" length="9.03" shape="292.80,-201.60 295.25,-201.95 297.00,-203.00 298.05,-204.75 298.40,-207.20"/>
    </edge>
    <edge id=":18_10" function="internal">
        <lane id=":18_10_0" index="0" speed="13.89" length="14.40" shape="292.80,-201.60 307.20,-201.60"/>
    </edge>
    <edge id=":18_11" function="internal">
        <lane id=":18_11_0" index="0" speed="8.00" length="14.19" shape="292.80,-201.60 296.65,-201.05 299.40,-199.40 301.05,-196.65 301.60,-192.80"/>
    </edge>
    <edge id=":19_0" function="internal">
        <lane id=":19_0_0" index="0" speed="6.51" length="9.03" shape="398.40,-192.80 398.05,-195.25 397.00,-197.00 395.25,-198.05 392.80,-198.40"/>
    </edge>
    <edge id=":19_1" function="internal">
        <lane id=":19_1_0" index="0" speed="13.89" length="14.40" shape="398.40,-192.80 398.40,-207.20"/>
    </edge>
    <edge id=":19_2" function="internal">
        <lane id=":19_2_0" index="0" speed="13.89" length="14.40" shape="401.60,-207.20 401.60,-192.80"/>
    </edge>
    <edge id=":19_3" function="internal">
        <lane id=":19_3_0" index="0" speed="8.00" length="4.07" shape="401.60,-207.20 401.05,-203.35 400.96,-203.20"/>
    </edge>
    <edge id=":19_6" function="internal">
        <lane id=":19_6_0" index="0" speed="8.00" length="10.13" shape="400.96,-203.20 399.40,-200.60 396.65,-198.95 392.80,-198.40"/>
    </edge>
    <edge id=":19_4" function="internal">
        <lane id=":19_4_0" index="0" speed="6.51" length="9.03" shape="392.80,-201.60 395.25,-201.95 397.00,-203.00 398.05,-204.75 398.40,-207.20"/>
    </edge>
    <edge id=":19_5" function="internal">
        <lane id=":19_5_0" index="0" speed="8.00" length="14.19" shape="392.80,-201.60 396.65,-201.05 399.40,-199.40 401.05,-196.65 401.60,-192.80"/>
    </edge>
    <edge id=":2_0" function="internal">
        <lane id=":2_0_0" index="0" speed="13.89" length="20.80" shape="210.40,101.60 189.60,101.60"/>
    </edge>
    <edge id=":2_1" function="internal">
        <lane id=":2_1_0" index="0" speed="8.67" length="16.85" shape="210.40,101.60 205.15,101.05 201.40,99.40 199.15,96.65 198.40,92.80"/>
    </edge>
    <edge id=":2_2" function="internal">
        <lane id=":2_2_0" index="0" speed="6.51" length="9.03" shape="204.80,92.80 205.15,95.25 206.20,97.00 207.95,98.05 210.40,98.40"/>
    </edge>
    <edge id=":2_3" function="internal">
        <lane id=":2_3_0" index="0" speed="8.67" length="16.85" shape="201.60,92.80 200.85,96.65 198.60,99.40 194.85,101.05 189.60,101.60"/>
    </edge>
    <edge id=":2_4" function="internal">