<?xml version="1.0" encoding="UTF-8"?>

<!-- generated on 2024-04-26 12:25:18 by Eclipse SUMO netconvert Version 1.18.0
<configuration xmlns:xsi="http://www.w3.org/2001/XMLSchema-instance" xsi:noNamespaceSchemaLocation="http://sumo.dlr.de/xsd/netconvertConfiguration.xsd">

    <input>
        <osm-files value="./test/Illan_de_Vacas.osm.xml"/>
    </input>

    <output>
        <output-file value="./test/Illan_de_Vacas.net.xml"/>
    </output>

    <projection>
        <proj.utm value="true"/>
    </projection>

    <edge_removal>
        <remove-edges.isolated value="true"/>
    </edge_removal>

</configuration>
-->

<net version="1.16" junctionCornerDetail="5" limitTurnSpeed="5.50" xmlns:xsi="http://www.w3.org/2001/XMLSchema-instance" xsi:noNamespaceSchemaLocation="http://sumo.dlr.de/xsd/net_file.xsd">

    <location netOffset="-366933.99,-4425632.56" convBoundary="0.00,0.00,234.05,93.36" origBoundary="-4.558195,39.970397,-4.555458,39.971261" projParameter="+proj=utm +zone=30 +ellps=WGS84 +datum=WGS84 +units=m +no_defs"/>

    <type id="highway.residential" priority="3" numLanes="1" speed="13.89" disallow="tram rail_urban rail rail_electric rail_fast ship" oneway="0"/>

    <edge id=":1864382548_0" function="internal">
        <lane id=":1864382548_0_0" index="0" disallow="tram rail_urban rail rail_electric rail_fast ship" speed="13.89" length="14.78" shape="67.50,87.48 52.76,86.37"/>
    </edge>
    <edge id=":1864382548_1" function="internal">
        <lane id=":1864382548_1_0" index="0" disallow="tram rail_urban rail rail_electric rail_fast ship" speed="13.89" length="14.78" shape="67.50,87.48 52.76,86.37"/>
    </edge>
    <edge id=":1864382548_2" function="internal">
        <lane id=":1864382548_2_0" index="0" disallow="tram rail_urban rail rail_electric rail_fast ship" speed="7.71" length="4.48" shape="67.50,87.48 63.37,86.69 63.15,86.53"/>
    </edge>
    <edge id=":1864382548_3" function="internal">
        <lane id=":1864382548_3_0" index="0" disallow="tram rail_urban rail rail_electric rail_fast ship" speed="7.71" length="4.48" shape="67.50,87.48 63.37,86.69 63.15,86.53"/>
    </edge>
    <edge id=":1864382548_4" function="internal">
        <lane id=":1864382548_4_0" index="0" disallow="tram rail_urban rail rail_electric rail_fast ship" speed="3.24" length="1.63" shape="67.50,87.48 67.58,85.85"/>
    </edge>
    <edge id=":1864382548_5" function="internal">
        <lane id=":1864382548_5_0" index="0" disallow="tram rail_urban rail rail_electric rail_fast ship" speed="3.65" length="1.44" shape="67.50,87.48 66.34,86.62"/>
    </edge>
    <edge id=":1864382548_36" function="internal">
        <lane id=":1864382548_36_0" index="0" disallow="tram rail_urban rail rail_electric rail_fast ship" speed="7.71" length="10.46" shape="63.15,86.53 60.73,84.77 59.60,81.71 59.96,77.52"/>
    </edge>
    <edge id=":1864382548_37" function="internal">
        <lane id=":1864382548_37_0" index="0" disallow="tram rail_urban rail rail_electric rail_fast ship" speed="7.71" length="10.46" shape="63.15,86.53 60.73,84.77 59.60,81.71 59.96,77.52"/>
    </edge>
    <edge id=":1864382548_38" function="internal">
        <lane id=":1864382548_38_0" index="0" disallow="tram rail_urban rail rail_electric rail_fast ship" speed="3.24" length="1.57" shape="67.58,85.85 67.65,84.28"/>
    </edge>
    <edge id=":1864382548_39" function="internal">
        <lane id=":1864382548_39_0" index="0" disallow="tram rail_urban rail rail_electric rail_fast ship" speed="3.65" length="3.23" shape="66.34,86.62 65.98,85.81 66.41,85.02 67.65,84.28"/>
    </edge>
    <edge id=":1864382548_6" function="internal">
        <lane id=":1864382548_6_0" index="0" disallow="tram rail_urban rail rail_electric rail_fast ship" speed="6.14" length="9.06" shape="63.07,78.24 62.85,80.78 63.54,82.64 65.14,83.80 67.65,84.28"/>
    </edge>
    <edge id=":1864382548_7" function="internal">
        <lane id=":1864382548_7_0" index="0" disallow="tram rail_urban rail rail_electric rail_fast ship" speed="6.14" length="9.06" shape="63.07,78.24 62.85,80.78 63.54,82.64 65.14,83.80 67.65,84.28"/>
    </edge>
    <edge id=":1864382548_8" function="internal">
        <lane id=":1864382548_8_0" index="0" disallow="tram rail_urban rail rail_electric rail_fast ship" speed="8.48" length="14.60" shape="63.07,78.24 61.64,82.14 59.44,84.79 56.48,86.20 52.76,86.37"/>
    </edge>
    <edge id=":1864382548_9" function="internal">
        <lane id=":1864382548_9_0" index="0" disallow="tram rail_urban rail rail_electric rail_fast ship" speed="8.48" length="14.60" shape="63.07,78.24 61.64,82.14 59.44,84.79 56.48,86.20 52.76,86.37"/>
    </edge>
    <edge id=":1864382548_10" function="internal">
        <lane id=":1864382548_10_0" index="0" disallow="tram rail_urban rail rail_electric rail_fast ship" speed="3.24" length="3.20" shape="63.07,78.24 59.96,77.52"/>
    </edge>
    <edge id=":1864382548_11" function="internal">
        <lane id=":1864382548_11_0" index="0" disallow="tram rail_urban rail rail_electric rail_fast ship" speed="3.65" length="4.67" shape="63.07,78.24 62.02,79.23 61.15,79.44 60.46,78.87 59.96,77.52"/>
    </edge>
    <edge id=":1864382548_12" function="internal">
        <lane id=":1864382548_12_0" index="0" disallow="tram rail_urban rail rail_electric rail_fast ship" speed="6.14" length="9.06" shape="63.07,78.24 62.85,80.78 63.54,82.64 65.14,83.80 67.65,84.28"/>
    </edge>
    <edge id=":1864382548_13" function="internal">
        <lane id=":1864382548_13_0" index="0" disallow="tram rail_urban rail rail_electric rail_fast ship" speed="6.14" length="9.06" shape="63.07,78.24 62.85,80.78 63.54,82.64 65.14,83.80 67.65,84.28"/>
    </edge>
    <edge id=":1864382548_14" function="internal">
        <lane id=":1864382548_14_0" index="0" disallow="tram rail_urban rail rail_electric rail_fast ship" speed="8.48" length="14.60" shape="63.07,78.24 61.64,82.14 59.44,84.79 56.48,86.20 52.76,86.37"/>
    </edge>
    <edge id=":1864382548_15" function="internal">
        <lane id=":1864382548_15_0" index="0" disallow="tram rail_urban rail rail_electric rail_fast ship" speed="8.48" length="14.60" shape="63.07,78.24 61.64,82.14 59.44,84.79 56.48,86.20 52.76,86.37"/>
    </edge>
    <edge id=":1864382548_16" function="internal">
        <lane id=":1864382548_16_0" index="0" disallow="tram rail_urban rail rail_electric rail_fast ship" speed="3.24" length="3.20" shape="63.07,78.24 59.96,77.52"/>
    </edge>
    <edge id=":1864382548_17" function="internal">
        <lane id=":1864382548_17_0" index="0" disallow="tram rail_urban rail rail_electric rail_fast ship" speed="3.65" length="4.67" shape="63.07,78.24 62.02,79.23 61.15,79.44 60.46,78.87 59.96,77.52"/>
    </edge>
    <edge id=":1864382548_18" function="internal">
        <lane id=":1864382548_18_0" index="0" disallow="tram rail_urban rail rail_electric rail_fast ship" speed="7.08" length="9.88" shape="53.11,83.19 55.56,83.06 57.51,82.07 58.98,80.22 59.96,77.52"/>
    </edge>
    <edge id=":1864382548_19" function="internal">
        <lane id=":1864382548_19_0" index="0" disallow="tram rail_urban rail rail_electric rail_fast ship" speed="7.08" length="9.88" shape="53.11,83.19 55.56,83.06 57.51,82.07 58.98,80.22 59.96,77.52"/>
    </edge>
    <edge id=":1864382548_20" function="internal">
        <lane id=":1864382548_20_0" index="0" disallow="tram rail_urban rail rail_electric rail_fast ship" speed="13.89" length="14.58" shape="53.11,83.19 67.65,84.28"/>
    </edge>
    <edge id=":1864382548_21" function="internal">
        <lane id=":1864382548_21_0" index="0" disallow="tram rail_urban rail rail_electric rail_fast ship" speed="13.89" length="14.58" shape="53.11,83.19 67.65,84.28"/>
    </edge>
    <edge id=":1864382548_22" function="internal">
        <lane id=":1864382548_22_0" index="0" disallow="tram rail_urban rail rail_electric rail_fast ship" speed="3.24" length="1.57" shape="53.11,83.19 52.94,84.75"/>
    </edge>
    <edge id=":1864382548_23" function="internal">
        <lane id=":1864382548_23_0" index="0" disallow="tram rail_urban rail rail_electric rail_fast ship" speed="3.65" length="1.44" shape="53.11,83.19 54.22,84.12"/>
    </edge>
    <edge id=":1864382548_40" function="internal">
        <lane id=":1864382548_40_0" index="0" disallow="tram rail_urban rail rail_electric rail_fast ship" speed="3.24" length="1.63" shape="52.94,84.75 52.76,86.37"/>
    </edge>
    <edge id=":1864382548_41" function="internal">
        <lane id=":1864382548_41_0" index="0" disallow="tram rail_urban rail rail_electric rail_fast ship" speed="3.65" length="3.23" shape="54.22,84.12 54.53,84.96 54.04,85.71 52.76,86.37"/>
    </edge>
    <edge id=":1864382548_24" function="internal">
        <lane id=":1864382548_24_0" index="0" disallow="tram rail_urban rail rail_electric rail_fast ship" speed="7.08" length="9.88" shape="53.11,83.19 55.56,83.06 57.51,82.07 58.98,80.22 59.96,77.52"/>
    </edge>
    <edge id=":1864382548_25" function="internal">
        <lane id=":1864382548_25_0" index="0" disallow="tram rail_urban rail rail_electric rail_fast ship" speed="7.08" length="9.88" shape="53.11,83.19 55.56,83.06 57.51,82.07 58.98,80.22 59.96,77.52"/>
    </edge>
    <edge id=":1864382548_26" function="internal">
        <lane id=":1864382548_26_0" index="0" disallow="tram rail_urban rail rail_electric rail_fast ship" speed="13.89" length="14.58" shape="53.11,83.19 67.65,84.28"/>
    </edge>
    <edge id=":1864382548_27" function="internal">
        <lane id=":1864382548_27_0" index="0" disallow="tram rail_urban rail rail_electric rail_fast ship" speed="13.89" length="14.58" shape="53.11,83.19 67.65,84.28"/>
    </edge>
    <edge id=":1864382548_28" function="internal">
        <lane id=":1864382548_28_0" index="0" disallow="tram rail_urban rail rail_electric rail_fast ship" speed="3.24" length="3.20" shape="53.11,83.19 52.76,86.37"/>
    </edge>
    <edge id=":1864382548_29" function="internal">
        <lane id=":1864382548_29_0" index="0" disallow="tram rail_urban rail rail_electric rail_fast ship" speed="3.65" length="4.67" shape="53.11,83.19 54.22,84.12 54.53,84.96 54.04,85.71 52.76,86.37"/>
    </edge>
    <edge id=":1864382548_30" function="internal">
        <lane id=":1864382548_30_0" index="0" disallow="tram rail_urban rail rail_electric rail_fast ship" speed="13.89" length="14.78" shape="67.50,87.48 52.76,86.37"/>
    </edge>
    <edge id=":1864382548_31" function="internal">
        <lane id=":1864382548_31_0" index="0" disallow="tram rail_urban rail rail_electric rail_fast ship" speed="13.89" length="14.78" shape="67.50,87.48 52.76,86.37"/>
    </edge>
    <edge id=":1864382548_32" function="internal">
        <lane id=":1864382548_32_0" index="0" disallow="tram rail_urban rail rail_electric rail_fast ship" speed="7.71" length="14.94" shape="67.50,87.48 63.37,86.69 60.73,84.77 59.60,81.71 59.96,77.52"/>
    </edge>
    <edge id=":1864382548_33" function="internal">
        <lane id=":1864382548_33_0" index="0" disallow="tram rail_urban rail rail_electric rail_fast ship" speed="7.71" length="14.94" shape="67.50,87.48 63.37,86.69 60.73,84.77 59.60,81.71 59.96,77.52"/>
    </edge>
    <edge id=":1864382548_34" function="internal">
        <lane id=":1864382548_34_0" index="0" disallow="tram rail_urban rail rail_electric rail_fast ship" speed="3.24" length="3.20" shape="67.50,87.48 67.65,84.28"/>
    </edge>
    <edge id=":1864382548_35" function="internal">
        <lane id=":1864382548_35_0" index="0" disallow="tram rail_urban rail rail_electric rail_fast ship" speed="3.65" length="4.67" shape="67.50,87.48 66.34,86.62 65.98,85.81 66.41,85.02 67.65,84.28"/>
    </edge>
    <edge id=":1864382694_0" function="internal">
        <lane id=":1864382694_0_0" index="0" disallow="tram rail_urban rail rail_electric rail_fast ship" speed="13.89" length="17.40" shape="69.77,52.07 68.50,56.00 67.30,60.41 66.20,64.85 65.26,68.87"/>
    </edge>
    <edge id=":1864382694_1" function="internal">
        <lane id=":1864382694_1_0" index="0" disallow="tram rail_urban rail rail_electric rail_fast ship" speed="13.89" length="17.40" shape="69.77,52.07 68.50,56.00 67.30,60.41 66.20,64.85 65.26,68.87"/>
    </edge>
    <edge id=":1864382694_2" function="internal">
        <lane id=":1864382694_2_0" index="0" disallow="tram rail_urban rail rail_electric rail_fast ship" speed="13.89" length="3.32" shape="69.77,52.07 68.09,54.94"/>
    </edge>
    <edge id=":1864382694_3" function="internal">
        <lane id=":1864382694_3_0" index="0" disallow="tram rail_urban rail rail_electric rail_fast ship" speed="13.89" length="18.10" shape="69.77,52.07 67.67,55.65 64.42,59.17 60.73,62.36 57.32,64.95"/>
    </edge>
    <edge id=":1864382694_4" function="internal">
        <lane id=":1864382694_4_0" index="0" disallow="tram rail_urban rail rail_electric rail_fast ship" speed="3.24" length="1.57" shape="69.77,52.07 68.29,51.54"/>
    </edge>
    <edge id=":1864382694_5" function="internal">
        <lane id=":1864382694_5_0" index="0" disallow="tram rail_urban rail rail_electric rail_fast ship" speed="3.65" length="1.44" shape="69.77,52.07 68.61,52.93"/>
    </edge>
    <edge id=":1864382694_36" function="internal">
        <lane id=":1864382694_36_0" index="0" disallow="tram rail_urban rail rail_electric rail_fast ship" speed="13.89" length="14.78" shape="68.09,54.94 67.67,55.65 64.42,59.17 60.73,62.36 57.32,64.95"/>
    </edge>
    <edge id=":1864382694_37" function="internal">
        <lane id=":1864382694_37_0" index="0" disallow="tram rail_urban rail rail_electric rail_fast ship" speed="3.24" length="1.63" shape="68.29,51.54 66.76,50.98"/>
    </edge>
    <edge id=":1864382694_38" function="internal">
        <lane id=":1864382694_38_0" index="0" disallow="tram rail_urban rail rail_electric rail_fast ship" speed="3.65" length="3.23" shape="68.61,52.93 67.72,53.03 67.10,52.38 66.76,50.98"/>
    </edge>
    <edge id=":1864382694_6" function="internal">
        <lane id=":1864382694_6_0" index="0" disallow="tram rail_urban rail rail_electric rail_fast ship" speed="13.89" length="17.40" shape="69.77,52.07 68.50,56.00 67.30,60.41 66.20,64.85 65.26,68.87"/>
    </edge>
    <edge id=":1864382694_7" function="internal">
        <lane id=":1864382694_7_0" index="0" disallow="tram rail_urban rail rail_electric rail_fast ship" speed="13.89" length="17.40" shape="69.77,52.07 68.50,56.00 67.30,60.41 66.20,64.85 65.26,68.87"/>
    </edge>
    <edge id=":1864382694_8" function="internal">
        <lane id=":1864382694_8_0" index="0" disallow="tram rail_urban rail rail_electric rail_fast ship" speed="13.89" length="18.10" shape="69.77,52.07 67.67,55.65 64.42,59.17 60.73,62.36 57.32,64.95"/>
    </edge>
    <edge id=":1864382694_9" function="internal">
        <lane id=":1864382694_9_0" index="0" disallow="tram rail_urban rail rail_electric rail_fast ship" speed="13.89" length="18.10" shape="69.77,52.07 67.67,55.65 64.42,59.17 60.73,62.36 57.32,64.95"/>
    </edge>
    <edge id=":1864382694_10" function="internal">
        <lane id=":1864382694_10_0" index="0" disallow="tram rail_urban rail rail_electric rail_fast ship" speed="3.24" length="3.20" shape="69.77,52.07 66.76,50.98"/>
    </edge>
    <edge id=":1864382694_11" function="internal">
        <lane id=":1864382694_11_0" index="0" disallow="tram rail_urban rail rail_electric rail_fast ship" speed="3.65" length="4.67" shape="69.77,52.07 68.61,52.93 67.72,53.03 67.10,52.38 66.76,50.98"/>
    </edge>
    <edge id=":1864382694_12" function="internal">
        <lane id=":1864382694_12_0" index="0" disallow="tram rail_urban rail rail_electric rail_fast ship" speed="13.89" length="16.27" shape="55.43,62.37 58.66,60.01 61.97,57.33 64.84,54.33 66.76,50.98"/>
    </edge>
    <edge id=":1864382694_13" function="internal">
        <lane id=":1864382694_13_0" index="0" disallow="tram rail_urban rail rail_electric rail_fast ship" speed="13.89" length="16.27" shape="55.43,62.37 58.66,60.01 61.97,57.33 64.84,54.33 66.76,50.98"/>
    </edge>
    <edge id=":1864382694_14" function="internal">
        <lane id=":1864382694_14_0" index="0" disallow="tram rail_urban rail rail_electric rail_fast ship" speed="7.49" length="20.40" shape="55.43,62.37 61.17,59.02 64.72,58.99 66.09,62.27 65.26,68.87"/>
    </edge>
    <edge id=":1864382694_15" function="internal">
        <lane id=":1864382694_15_0" index="0" disallow="tram rail_urban rail rail_electric rail_fast ship" speed="7.49" length="20.40" shape="55.43,62.37 61.17,59.02 64.72,58.99 66.09,62.27 65.26,68.87"/>
    </edge>
    <edge id=":1864382694_16" function="internal">
        <lane id=":1864382694_16_0" index="0" disallow="tram rail_urban rail rail_electric rail_fast ship" speed="3.24" length="3.20" shape="55.43,62.37 57.32,64.95"/>
    </edge>
    <edge id=":1864382694_17" function="internal">
        <lane id=":1864382694_17_0" index="0" disallow="tram rail_urban rail rail_electric rail_fast ship" speed="3.65" length="4.67" shape="55.43,62.37 56.87,62.31 57.67,62.72 57.81,63.60 57.32,64.95"/>
    </edge>
    <edge id=":1864382694_18" function="internal">
        <lane id=":1864382694_18_0" index="0" disallow="tram rail_urban rail rail_electric rail_fast ship" speed="13.89" length="16.27" shape="55.43,62.37 58.66,60.01 61.97,57.33 64.84,54.33 66.76,50.98"/>
    </edge>
    <edge id=":1864382694_19" function="internal">
        <lane id=":1864382694_19_0" index="0" disallow="tram rail_urban rail rail_electric rail_fast ship" speed="13.89" length="16.27" shape="55.43,62.37 58.66,60.01 61.97,57.33 64.84,54.33 66.76,50.98"/>
    </edge>
    <edge id=":1864382694_20" function="internal">
        <lane id=":1864382694_20_0" index="0" disallow="tram rail_urban rail rail_electric rail_fast ship" speed="7.49" length="20.40" shape="55.43,62.37 61.17,59.02 64.72,58.99 66.09,62.27 65.26,68.87"/>
    </edge>
    <edge id=":1864382694_21" function="internal">
        <lane id=":1864382694_21_0" index="0" disallow="tram rail_urban rail rail_electric rail_fast ship" speed="7.49" length="20.40" shape="55.43,62.37 61.17,59.02 64.72,58.99 66.09,62.27 65.26,68.87"/>
    </edge>
    <edge id=":1864382694_22" function="internal">
        <lane id=":1864382694_22_0" index="0" disallow="tram rail_urban rail rail_electric rail_fast ship" speed="3.24" length="3.20" shape="55.43,62.37 57.32,64.95"/>
    </edge>
    <edge id=":1864382694_23" function="internal">
        <lane id=":1864382694_23_0" index="0" disallow="tram rail_urban rail rail_electric rail_fast ship" speed="3.65" length="4.67" shape="55.43,62.37 56.87,62.31 57.67,62.72 57.81,63.60 57.32,64.95"/>
    </edge>
    <edge id=":1864382694_24" function="internal">
        <lane id=":1864382694_24_0" index="0" disallow="tram rail_urban rail rail_electric rail_fast ship" speed="5.46" length="10.01" shape="62.14,68.14 62.55,64.90 61.88,63.29 60.14,63.31 57.32,64.95"/>
    </edge>
    <edge id=":1864382694_25" function="internal">
        <lane id=":1864382694_25_0" index="0" disallow="tram rail_urban rail rail_electric rail_fast ship" speed="5.46" length="10.01" shape="62.14,68.14 62.55,64.90 61.88,63.29 60.14,63.31 57.32,64.95"/>
    </edge>
    <edge id=":1864382694_26" function="internal">
        <lane id=":1864382694_26_0" index="0" disallow="tram rail_urban rail rail_electric rail_fast ship" speed="13.89" length="17.78" shape="62.14,68.14 63.10,64.07 64.24,59.50 65.48,54.96 66.76,50.98"/>
    </edge>
    <edge id=":1864382694_27" function="internal">
        <lane id=":1864382694_27_0" index="0" disallow="tram rail_urban rail rail_electric rail_fast ship" speed="13.89" length="17.78" shape="62.14,68.14 63.10,64.07 64.24,59.50 65.48,54.96 66.76,50.98"/>
    </edge>
    <edge id=":1864382694_28" function="internal">
        <lane id=":1864382694_28_0" index="0" disallow="tram rail_urban rail rail_electric rail_fast ship" speed="3.24" length="1.60" shape="62.14,68.14 63.70,68.50"/>
    </edge>
    <edge id=":1864382694_29" function="internal">
        <lane id=":1864382694_29_0" index="0" disallow="tram rail_urban rail rail_electric rail_fast ship" speed="3.65" length="1.44" shape="62.14,68.14 63.19,67.15"/>
    </edge>
    <edge id=":1864382694_39" function="internal">
        <lane id=":1864382694_39_0" index="0" disallow="tram rail_urban rail rail_electric rail_fast ship" speed="3.24" length="1.60" shape="63.70,68.50 65.26,68.87"/>
    </edge>
    <edge id=":1864382694_40" function="internal">
        <lane id=":1864382694_40_0" index="0" disallow="tram rail_urban rail rail_electric rail_fast ship" speed="3.65" length="3.23" shape="63.19,67.15 64.06,66.95 64.75,67.52 65.26,68.87"/>
    </edge>
    <edge id=":1864382694_30" function="internal">
        <lane id=":1864382694_30_0" index="0" disallow="tram rail_urban rail rail_electric rail_fast ship" speed="5.46" length="10.01" shape="62.14,68.14 62.55,64.90 61.88,63.29 60.14,63.31 57.32,64.95"/>
    </edge>
    <edge id=":1864382694_31" function="internal">
        <lane id=":1864382694_31_0" index="0" disallow="tram rail_urban rail rail_electric rail_fast ship" speed="5.46" length="10.01" shape="62.14,68.14 62.55,64.90 61.88,63.29 60.14,63.31 57.32,64.95"/>
    </edge>
    <edge id=":1864382694_32" function="internal">
        <lane id=":1864382694_32_0" index="0" disallow="tram rail_urban rail rail_electric rail_fast ship" speed="13.89" length="17.78" shape="62.14,68.14 63.10,64.07 64.24,59.50 65.48,54.96 66.76,50.98"/>
    </edge>
    <edge id=":1864382694_33" function="internal">
        <lane id=":1864382694_33_0" index="0" disallow="tram rail_urban rail rail_electric rail_fast ship" speed="13.89" length="17.78" shape="62.14,68.14 63.10,64.07 64.24,59.50 65.48,54.96 66.76,50.98"/>
    </edge>
    <edge id=":1864382694_34" function="internal">
        <lane id=":1864382694_34_0" index="0" disallow="tram rail_urban rail rail_electric rail_fast ship" speed="3.24" length="3.20" shape="62.14,68.14 65.26,68.87"/>
    </edge>
    <edge id=":1864382694_35" function="internal">
        <lane id=":1864382694_35_0" index="0" disallow="tram rail_urban rail rail_electric rail_fast ship" speed="3.65" length="4.67" shape="62.14,68.14 63.19,67.15 64.06,66.95 64.75,67.52 65.26,68.87"/>
    </edge>
    <edge id=":1864382713_0" function="internal">
        <lane id=":1864382713_0_0" index="0" disallow="tram rail_urban rail rail_electric rail_fast ship" speed="13.89" length="3.55" shape="155.14,17.28 154.25,16.72 153.61,16.39 152.92,16.17 151.89,15.93"/>
    </edge>
    <edge id=":1864382713_1" function="internal">
        <lane id=":1864382713_1_0" index="0" disallow="tram rail_urban rail rail_electric rail_fast ship" speed="13.89" length="3.55" shape="155.14,17.28 154.25,16.72 153.61,16.39 152.92,16.17 151.89,15.93"/>
    </edge>
    <edge id=":1864382713_2" function="internal">
        <lane id=":1864382713_2_0" index="0" disallow="tram rail_urban rail rail_electric rail_fast ship" speed="3.24" length="1.59" shape="155.14,17.28 156.00,15.95"/>
    </edge>
    <edge id=":1864382713_3" function="internal">
        <lane id=":1864382713_3_0" index="0" disallow="tram rail_urban rail rail_electric rail_fast ship" speed="3.65" length="1.44" shape="155.14,17.28 154.56,15.96"/>
    </edge>
    <edge id=":1864382713_16" function="internal">
        <lane id=":1864382713_16_0" index="0" disallow="tram rail_urban rail rail_electric rail_fast ship" speed="3.24" length="1.61" shape="156.00,15.95 156.87,14.59"/>
    </edge>
    <edge id=":1864382713_17" function="internal">
        <lane id=":1864382713_17_0" index="0" disallow="tram rail_urban rail rail_electric rail_fast ship" speed="3.65" length="3.23" shape="154.56,15.96 154.66,15.07 155.43,14.62 156.87,14.59"/>
    </edge>
    <edge id=":1864382713_4" function="internal">
        <lane id=":1864382713_4_0" index="0" disallow="tram rail_urban rail rail_electric rail_fast ship" speed="13.89" length="4.70" shape="152.58,12.80 153.93,13.12 154.84,13.41 155.70,13.85 156.87,14.59"/>
    </edge>
    <edge id=":1864382713_5" function="internal">
        <lane id=":1864382713_5_0" index="0" disallow="tram rail_urban rail rail_electric rail_fast ship" speed="13.89" length="4.70" shape="152.58,12.80 153.93,13.12 154.84,13.41 155.70,13.85 156.87,14.59"/>
    </edge>
    <edge id=":1864382713_6" function="internal">
        <lane id=":1864382713_6_0" index="0" disallow="tram rail_urban rail rail_electric rail_fast ship" speed="3.24" length="1.61" shape="152.58,12.80 152.23,14.38"/>
    </edge>
    <edge id=":1864382713_7" function="internal">
        <lane id=":1864382713_7_0" index="0" disallow="tram rail_urban rail rail_electric rail_fast ship" speed="3.65" length="1.44" shape="152.58,12.80 153.58,13.84"/>
    </edge>
    <edge id=":1864382713_18" function="internal">
        <lane id=":1864382713_18_0" index="0" disallow="tram rail_urban rail rail_electric rail_fast ship" speed="3.24" length="1.59" shape="152.23,14.38 151.89,15.93"/>
    </edge>
    <edge id=":1864382713_19" function="internal">
        <lane id=":1864382713_19_0" index="0" disallow="tram rail_urban rail rail_electric rail_fast ship" speed="3.65" length="3.23" shape="153.58,13.84 153.80,14.71 153.23,15.41 151.89,15.93"/>
    </edge>
    <edge id=":1864382713_8" function="internal">
        <lane id=":1864382713_8_0" index="0" disallow="tram rail_urban rail rail_electric rail_fast ship" speed="13.89" length="4.70" shape="152.58,12.80 153.93,13.12 154.84,13.41 155.70,13.85 156.87,14.59"/>
    </edge>
    <edge id=":1864382713_9" function="internal">
        <lane id=":1864382713_9_0" index="0" disallow="tram rail_urban rail rail_electric rail_fast ship" speed="13.89" length="4.70" shape="152.58,12.80 153.93,13.12 154.84,13.41 155.70,13.85 156.87,14.59"/>
    </edge>
    <edge id=":1864382713_10" function="internal">
        <lane id=":1864382713_10_0" index="0" disallow="tram rail_urban rail rail_electric rail_fast ship" speed="3.24" length="3.20" shape="152.58,12.80 151.89,15.93"/>
    </edge>
    <edge id=":1864382713_11" function="internal">
        <lane id=":1864382713_11_0" index="0" disallow="tram rail_urban rail rail_electric rail_fast ship" speed="3.65" length="4.67" shape="152.58,12.80 153.58,13.84 153.80,14.71 153.23,15.41 151.89,15.93"/>
    </edge>
    <edge id=":1864382713_12" function="internal">
        <lane id=":1864382713_12_0" index="0" disallow="tram rail_urban rail rail_electric rail_fast ship" speed="13.89" length="3.55" shape="155.14,17.28 154.25,16.72 153.61,16.39 152.92,16.17 151.89,15.93"/>
    </edge>
    <edge id=":1864382713_13" function="internal">
        <lane id=":1864382713_13_0" index="0" disallow="tram rail_urban rail rail_electric rail_fast ship" speed="13.89" length="3.55" shape="155.14,17.28 154.25,16.72 153.61,16.39 152.92,16.17 151.89,15.93"/>
    </edge>
    <edge id=":1864382713_14" function="internal">
        <lane id=":1864382713_14_0" index="0" disallow="tram rail_urban rail rail_electric rail_fast ship" speed="3.24" length="3.20" shape="155.14,17.28 156.87,14.59"/>
    </edge>
    <edge id=":1864382713_15" function="internal">
        <lane id=":1864382713_15_0" index="0" disallow="tram rail_urban rail rail_electric rail_fast ship" speed="3.65" length="4.67" shape="155.14,17.28 154.56,15.96 154.66,15.07 155.43,14.62 156.87,14.59"/>
    </edge>
    <edge id=":1864382973_0" function="internal">
        <lane id=":1864382973_0_0" index="0" disallow="tram rail_urban rail rail_electric rail_fast ship" speed="13.89" length="17.42" shape="42.80,85.29 25.47,83.49"/>
    </edge>
    <edge id=":1864382973_1" function="internal">
        <lane id=":1864382973_1_0" index="0" disallow="tram rail_urban rail rail_electric rail_fast ship" speed="13.89" length="17.42" shape="42.80,85.29 25.47,83.49"/>
    </edge>
    <edge id=":1864382973_2" function="internal">
        <lane id=":1864382973_2_0" index="0" disallow="tram rail_urban rail rail_electric rail_fast ship" speed="7.46" length="6.22" shape="42.80,85.29 36.73,83.95"/>
    </edge>
    <edge id=":1864382973_3" function="internal">
        <lane id=":1864382973_3_0" index="0" disallow="tram rail_urban rail rail_electric rail_fast ship" speed="7.46" length="6.22" shape="42.80,85.29 36.73,83.95"/>
    </edge>
    <edge id=":1864382973_4" function="internal">
        <lane id=":1864382973_4_0" index="0" disallow="tram rail_urban rail rail_electric rail_fast ship" speed="3.24" length="1.60" shape="42.80,85.29 42.98,83.70"/>
    </edge>
    <edge id=":1864382973_5" function="internal">
        <lane id=":1864382973_5_0" index="0" disallow="tram rail_urban rail rail_electric rail_fast ship" speed="3.65" length="1.44" shape="42.80,85.29 41.70,84.36"/>
    </edge>
    <edge id=":1864382973_36" function="internal">
        <lane id=":1864382973_36_0" index="0" disallow="tram rail_urban rail rail_electric rail_fast ship" speed="7.46" length="13.72" shape="36.73,83.95 36.51,83.90 33.90,81.54 34.98,78.18 39.74,73.84"/>
    </edge>
    <edge id=":1864382973_37" function="internal">
        <lane id=":1864382973_37_0" index="0" disallow="tram rail_urban rail rail_electric rail_fast ship" speed="7.46" length="13.72" shape="36.73,83.95 36.51,83.90 33.90,81.54 34.98,78.18 39.74,73.84"/>
    </edge>
    <edge id=":1864382973_38" function="internal">
        <lane id=":1864382973_38_0" index="0" disallow="tram rail_urban rail rail_electric rail_fast ship" speed="3.24" length="1.60" shape="42.98,83.70 43.15,82.10"/>
    </edge>
    <edge id=":1864382973_39" function="internal">
        <lane id=":1864382973_39_0" index="0" disallow="tram rail_urban rail rail_electric rail_fast ship" speed="3.65" length="3.23" shape="41.70,84.36 41.39,83.52 41.87,82.77 43.15,82.10"/>
    </edge>
    <edge id=":1864382973_6" function="internal">
        <lane id=":1864382973_6_0" index="0" disallow="tram rail_urban rail rail_electric rail_fast ship" speed="5.46" length="9.89" shape="41.63,76.43 39.27,78.58 38.73,80.24 40.03,81.42 43.15,82.10"/>
    </edge>