<?xml version="1.0" encoding="UTF-8"?>

<!-- generated on 2024-05-22 17:16:28 by Eclipse SUMO netedit Version 1.18.0
<configuration xmlns:xsi="http://www.w3.org/2001/XMLSchema-instance" xsi:noNamespaceSchemaLocation="http://sumo.dlr.de/xsd/neteditConfiguration.xsd">

    <input>
        <sumo-net-file value="C:\Users\colla\Documents\GitHub\AITrafficLab\test\Irregular.net.xml"/>
    </input>

    <output>
        <output-file value="C:\Users\colla\Documents\GitHub\AITrafficLab\test\Irregular.net.xml"/>
    </output>

    <processing>
        <geometry.min-radius.fix.railways value="false"/>
        <geometry.max-grade.fix value="false"/>
        <offset.disable-normalization value="true"/>
        <lefthand value="0"/>
    </processing>

    <junctions>
        <no-turnarounds value="true"/>
        <junctions.corner-detail value="5"/>
        <junctions.limit-turn-speed value="5.50"/>
        <rectangular-lane-cut value="0"/>
    </junctions>

    <pedestrian>
        <walkingareas value="0"/>
    </pedestrian>

</configuration>
-->

<net version="1.16" junctionCornerDetail="5" limitTurnSpeed="5.50" xmlns:xsi="http://www.w3.org/2001/XMLSchema-instance" xsi:noNamespaceSchemaLocation="http://sumo.dlr.de/xsd/net_file.xsd">

    <location netOffset="0.00,0.00" convBoundary="-100.00,-308.64,500.00,107.51" origBoundary="-10000000000.00,-10000000000.00,10000000000.00,10000000000.00" projParameter="!"/>

    <edge id=":0_0" function="internal">
        <lane id=":0_0_0" index="0" speed="9.13" length="2.88" shape="19.82,87.13 17.09,86.21"/>
    </edge>
    <edge id=":0_4" function="internal">
        <lane id=":0_4_0" index="0" speed="9.13" length="10.99" shape="17.09,86.21 16.56,86.03 14.03,84.07 12.24,81.22 11.18,77.51"/>
    </edge>
    <edge id=":0_1" function="internal">
        <lane id=":0_1_0" index="0" speed="7.80" length="9.91" shape="14.34,76.99 15.10,79.70 16.36,81.77 18.12,83.20 20.39,83.98"/>
    </edge>
    <edge id=":0_2" function="internal">
        <lane id=":0_2_0" index="0" speed="8.16" length="15.13" shape="-0.48,84.80 4.97,83.70 8.73,82.11 10.80,80.05 11.18,77.51"/>
    </edge>
    <edge id=":0_3" function="internal">
        <lane id=":0_3_0" index="0" speed="13.89" length="20.93" shape="-0.48,84.80 4.18,84.26 9.97,83.80 15.75,83.64 20.39,83.98"/>
    </edge>
    <edge id=":1_0" function="internal">
        <lane id=":1_0_0" index="0" speed="13.89" length="15.28" shape="106.29,102.08 102.51,101.73 98.70,101.25 94.89,100.67 91.15,100.03"/>
    </edge>
    <edge id=":1_1" function="internal">
        <lane id=":1_1_0" index="0" speed="9.22" length="3.78" shape="106.29,102.08 102.83,101.22 102.66,101.09"/>
    </edge>
    <edge id=":1_6" function="internal">
        <lane id=":1_6_0" index="0" speed="9.22" length="11.42" shape="102.66,101.09 100.09,99.22 98.05,96.07 96.73,91.78"/>
    </edge>
    <edge id=":1_2" function="internal">
        <lane id=":1_2_0" index="0" speed="7.93" length="11.02" shape="99.87,91.15 100.83,94.39 102.26,96.76 104.16,98.26 106.53,98.89"/>
    </edge>
    <edge id=":1_3" function="internal">
        <lane id=":1_3_0" index="0" speed="7.50" length="15.88" shape="99.87,91.15 100.13,95.77 98.77,98.79 95.78,100.21 91.15,100.03"/>
    </edge>
    <edge id=":1_4" function="internal">
        <lane id=":1_4_0" index="0" speed="5.85" length="9.12" shape="91.72,96.88 94.38,96.98 96.10,96.17 96.88,94.43 96.73,91.78"/>
    </edge>
    <edge id=":1_5" function="internal">
        <lane id=":1_5_0" index="0" speed="13.89" length="14.95" shape="91.72,96.88 95.41,97.51 99.10,98.08 102.81,98.54 106.53,98.89"/>
    </edge>
    <edge id=":10_0" function="internal">
        <lane id=":10_0_0" index="0" speed="6.90" length="10.84" shape="-10.37,-98.36 -11.03,-101.75 -12.31,-104.05 -14.20,-105.24 -16.72,-105.33"/>
    </edge>
    <edge id=":10_1" function="internal">
        <lane id=":10_1_0" index="0" speed="13.89" length="29.36" shape="-10.37,-98.36 -10.62,-104.35 -10.69,-113.04 -10.57,-121.72 -10.24,-127.70"/>
    </edge>
    <edge id=":10_2" function="internal">
        <lane id=":10_2_0" index="0" speed="8.85" length="23.38" shape="-10.37,-98.36 -10.24,-106.14 -8.20,-111.00 -4.26,-112.95 1.59,-111.97"/>
    </edge>
    <edge id=":10_3" function="internal">
        <lane id=":10_3_0" index="0" speed="5.77" length="9.16" shape="-1.64,-102.93 -4.28,-103.48 -6.08,-102.96 -7.05,-101.34 -7.18,-98.65"/>
    </edge>
    <edge id=":10_4" function="internal">
        <lane id=":10_4_0" index="0" speed="13.89" length="17.19" shape="-1.64,-102.93 -5.97,-104.56 -9.05,-105.55 -12.19,-105.83 -16.72,-105.33"/>
        <lane id=":10_4_1" index="1" speed="13.89" length="17.19" shape="-0.56,-105.95 -5.34,-107.73 -8.75,-108.79 -12.23,-109.06 -17.23,-108.49"/>
        <lane id=":10_4_2" index="2" speed="13.89" length="17.19" shape="0.52,-108.96 -4.72,-110.90 -8.45,-112.02 -12.26,-112.29 -17.74,-111.65"/>
    </edge>
    <edge id=":10_7" function="internal">
        <lane id=":10_7_0" index="0" speed="11.14" length="5.20" shape="0.52,-108.96 -4.08,-111.40"/>
    </edge>
    <edge id=":10_16" function="internal">
        <lane id=":10_16_0" index="0" speed="11.14" length="18.39" shape="-4.08,-111.40 -4.83,-111.80 -8.40,-115.87 -10.20,-121.17 -10.24,-127.70"/>
    </edge>
    <edge id=":10_8" function="internal">
        <lane id=":10_8_0" index="0" speed="9.03" length="15.20" shape="-7.06,-127.32 -6.62,-124.78 -4.67,-122.37 -1.21,-120.11 3.75,-118.00"/>
    </edge>
    <edge id=":10_9" function="internal">
        <lane id=":10_9_0" index="0" speed="13.89" length="28.69" shape="-7.06,-127.32 -7.39,-121.45 -7.51,-112.99 -7.43,-104.53 -7.18,-98.65"/>
    </edge>
    <edge id=":10_10" function="internal">
        <lane id=":10_10_0" index="0" speed="10.64" length="20.38" shape="-7.06,-127.32 -8.36,-121.01 -10.58,-116.30 -13.70,-113.18 -17.74,-111.65"/>
    </edge>
    <edge id=":10_11" function="internal">
        <lane id=":10_11_0" index="0" speed="8.27" length="11.99" shape="-19.27,-121.13 -15.55,-122.05 -12.80,-123.45 -11.03,-125.34 -10.24,-127.70"/>
    </edge>
    <edge id=":10_12" function="internal">
        <lane id=":10_12_0" index="0" speed="13.89" length="22.06" shape="-19.27,-121.13 -12.37,-121.97 -7.56,-121.72 -2.85,-120.40 3.75,-118.00"/>
        <lane id=":10_12_1" index="1" speed="13.89" length="22.06" shape="-18.76,-117.97 -12.33,-118.74 -7.86,-118.49 -3.47,-117.23 2.67,-114.98"/>
        <lane id=":10_12_2" index="2" speed="13.89" length="22.06" shape="-18.25,-114.81 -12.30,-115.52 -8.15,-115.26 -4.10,-114.06 1.59,-111.97"/>
    </edge>
    <edge id=":10_15" function="internal">
        <lane id=":10_15_0" index="0" speed="9.61" length="3.32" shape="-18.25,-114.81 -14.94,-114.47"/>
    </edge>
    <edge id=":10_17" function="internal">
        <lane id=":10_17_0" index="0" speed="9.61" length="18.74" shape="-14.94,-114.47 -14.00,-114.38 -10.74,-111.54 -8.46,-106.29 -7.18,-98.65"/>
    </edge>
    <edge id=":11_0" function="internal">
        <lane id=":11_0_0" index="0" speed="11.16" length="17.01" shape="110.62,-72.16 105.07,-69.76 100.99,-67.35 98.38,-64.94 97.24,-62.52"/>
    </edge>
    <edge id=":11_1" function="internal">
        <lane id=":11_1_0" index="0" speed="13.89" length="24.78" shape="110.62,-72.16 103.12,-69.57 97.60,-68.75 92.06,-69.62 84.51,-72.12"/>
        <lane id=":11_1_1" index="1" speed="13.89" length="24.78" shape="109.48,-75.15 102.62,-72.78 97.57,-72.04 92.50,-72.84 85.59,-75.14"/>
        <lane id=":11_1_2" index="2" speed="13.89" length="24.78" shape="108.34,-78.14 102.12,-76.00 97.53,-75.33 92.93,-76.07 86.67,-78.15"/>
    </edge>
    <edge id=":11_4" function="internal">
        <lane id=":11_4_0" index="0" speed="8.97" length="4.33" shape="108.34,-78.14 104.07,-77.42"/>
    </edge>
    <edge id=":11_16" function="internal">
        <lane id=":11_16_0" index="0" speed="8.97" length="18.28" shape="104.07,-77.42 103.05,-77.25 99.17,-79.17 96.70,-83.89 95.65,-91.41"/>
    </edge>
    <edge id=":11_5" function="internal">
        <lane id=":11_5_0" index="0" speed="6.01" length="9.41" shape="98.85,-91.53 99.32,-88.76 100.49,-87.10 102.36,-86.55 104.92,-87.11"/>
    </edge>
    <edge id=":11_6" function="internal">
        <lane id=":11_6_0" index="0" speed="13.89" length="29.07" shape="98.85,-91.53 98.79,-85.58 98.43,-77.00 97.87,-68.43 97.24,-62.52"/>
    </edge>
    <edge id=":11_7" function="internal">
        <lane id=":11_7_0" index="0" speed="8.87" length="22.84" shape="98.85,-91.53 98.34,-83.95 96.15,-79.19 92.25,-77.26 86.67,-78.15"/>
    </edge>
    <edge id=":11_8" function="internal">
        <lane id=":11_8_0" index="0" speed="5.84" length="9.13" shape="89.90,-87.19 92.51,-86.65 94.33,-87.17 95.38,-88.76 95.65,-91.41"/>
    </edge>
    <edge id=":11_9" function="internal">
        <lane id=":11_9_0" index="0" speed="13.89" length="17.88" shape="89.90,-87.19 94.24,-85.73 97.43,-85.20 100.61,-85.64 104.92,-87.11"/>
        <lane id=":11_9_1" index="1" speed="13.89" length="17.88" shape="88.82,-84.18 93.81,-82.51 97.46,-81.91 101.11,-82.42 106.06,-84.12"/>
        <lane id=":11_9_2" index="2" speed="13.89" length="17.88" shape="87.74,-81.16 93.37,-79.29 97.50,-78.62 101.61,-79.21 107.20,-81.13"/>
    </edge>
    <edge id=":11_12" function="internal">
        <lane id=":11_12_0" index="0" speed="10.78" length="4.01" shape="87.74,-81.16 91.27,-79.24"/>
    </edge>
    <edge id=":11_17" function="internal">
        <lane id=":11_17_0" index="0" speed="10.78" length="19.00" shape="91.27,-79.24 92.80,-78.40 96.07,-74.37 97.55,-69.08 97.24,-62.52"/>
    </edge>
    <edge id=":11_13" function="internal">
        <lane id=":11_13_0" index="0" speed="8.57" length="14.21" shape="94.09,-63.04 93.82,-65.61 92.14,-67.98 89.03,-70.15 84.51,-72.12"/>
    </edge>
    <edge id=":11_14" function="internal">
        <lane id=":11_14_0" index="0" speed="13.89" length="28.42" shape="94.09,-63.04 94.71,-68.85 95.25,-77.20 95.60,-85.56 95.65,-91.41"/>
    </edge>
    <edge id=":11_15" function="internal">
        <lane id=":11_15_0" index="0" speed="13.03" length="23.42" shape="94.09,-63.04 95.78,-69.41 98.53,-74.55 102.34,-78.46 107.20,-81.13"/>
    </edge>
    <edge id=":12_0" function="internal">
        <lane id=":12_0_0" index="0" speed="7.68" length="13.61" shape="176.46,-85.39 174.69,-89.90 172.67,-92.84 170.39,-94.19 167.85,-93.97"/>
    </edge>
    <edge id=":12_1" function="internal">
        <lane id=":12_1_0" index="0" speed="13.89" length="32.38" shape="176.46,-85.39 174.19,-92.96 171.93,-101.02 169.86,-109.14 168.16,-116.85"/>
        <lane id=":12_1_1" index="1" speed="13.89" length="32.38" shape="179.52,-86.34 177.26,-93.85 175.03,-101.80 172.98,-109.81 171.30,-117.47"/>
    </edge>
    <edge id=":12_3" function="internal">
        <lane id=":12_3_0" index="0" speed="9.09" length="26.63" shape="179.52,-86.34 178.59,-93.89 180.70,-99.57 185.54,-102.61 192.78,-102.28"/>
    </edge>
    <edge id=":12_4" function="internal">
        <lane id=":12_4_0" index="0" speed="5.63" length="9.29" shape="190.26,-93.01 187.47,-93.39 185.77,-92.72 185.16,-91.00 185.63,-88.23"/>
    </edge>
    <edge id=":12_5" function="internal">
        <lane id=":12_5_0" index="0" speed="13.89" length="25.15" shape="190.26,-93.01 183.67,-94.97 178.93,-96.09 174.25,-95.92 167.85,-93.97"/>
        <lane id=":12_5_1" index="1" speed="13.89" length="25.15" shape="191.10,-96.10 183.93,-98.20 178.77,-99.36 173.68,-99.11 166.71,-96.96"/>
        <lane id=":12_5_2" index="2" speed="13.89" length="25.15" shape="191.94,-99.19 184.18,-101.43 178.60,-102.63 173.10,-102.30 165.57,-99.95"/>
    </edge>
    <edge id=":12_8" function="internal">
        <lane id=":12_8_0" index="0" speed="13.89" length="8.58" shape="191.94,-99.19 183.90,-102.17"/>
    </edge>
    <edge id=":12_18" function="internal">
        <lane id=":12_18_0" index="0" speed="13.89" length="20.51" shape="183.90,-102.17 177.78,-106.21 173.58,-111.31 171.30,-117.47"/>
    </edge>
    <edge id=":12_9" function="internal">
        <lane id=":12_9_0" index="0" speed="11.71" length="20.49" shape="177.58,-118.70 179.07,-115.82 182.39,-113.15 187.51,-110.69 194.46,-108.45"/>
    </edge>
    <edge id=":12_10" function="internal">
        <lane id=":12_10_0" index="0" speed="13.89" length="31.71" shape="177.58,-118.70 179.24,-111.14 181.22,-103.37 183.40,-95.64 185.63,-88.23"/>
        <lane id=":12_10_1" index="1" speed="13.89" length="31.71" shape="174.44,-118.08 176.11,-110.48 178.12,-102.59 180.33,-94.74 182.58,-87.28"/>
    </edge>
    <edge id=":12_12" function="internal">
        <lane id=":12_12_0" index="0" speed="10.57" length="22.24" shape="174.44,-118.08 174.90,-111.80 173.57,-106.69 170.46,-102.73 165.57,-99.95"/>
    </edge>
    <edge id=":12_13" function="internal">
        <lane id=":12_13_0" index="0" speed="7.55" length="10.91" shape="162.15,-108.92 165.17,-110.42 167.17,-112.24 168.17,-114.38 168.16,-116.85"/>
    </edge>
    <edge id=":12_14" function="internal">
        <lane id=":12_14_0" index="0" speed="13.89" length="31.21" shape="162.15,-108.92 171.08,-111.65 178.13,-112.16 185.28,-110.94 194.46,-108.45"/>
        <lane id=":12_14_1" index="1" speed="13.89" length="31.21" shape="163.29,-105.93 171.91,-108.65 178.28,-109.13 184.75,-107.86 193.62,-105.36"/>
        <lane id=":12_14_2" index="2" speed="13.89" length="31.21" shape="164.43,-102.94 172.53,-105.49 178.44,-105.90 184.44,-104.66 192.78,-102.28"/>
    </edge>
    <edge id=":12_17" function="internal">
        <lane id=":12_17_0" index="0" speed="10.64" length="4.08" shape="164.43,-102.94 168.48,-103.46"/>
    </edge>
    <edge id=":12_19" function="internal">
        <lane id=":12_19_0" index="0" speed="10.64" length="23.10" shape="168.48,-103.46 170.03,-103.66 174.92,-101.29 179.10,-95.83 182.58,-87.28"/>
    </edge>
    <edge id=":13_0" function="internal">
        <lane id=":13_0_0" index="0" speed="12.98" length="19.46" shape="314.73,-66.54 308.12,-64.33 303.13,-62.07 299.77,-59.76 298.03,-57.40"/>
    </edge>
    <edge id=":13_1" function="internal">
        <lane id=":13_1_0" index="0" speed="13.89" length="22.57" shape="314.73,-66.54 307.81,-64.54 302.86,-63.66 297.90,-63.98 290.94,-65.63"/>
        <lane id=":13_1_1" index="1" speed="13.89" length="22.57" shape="313.82,-69.61 307.41,-67.75 302.83,-66.91 298.23,-67.20 291.78,-68.72"/>
        <lane id=":13_1_2" index="2" speed="13.89" length="22.57" shape="312.92,-72.68 307.02,-70.96 302.79,-70.17 298.56,-70.42 292.62,-71.81"/>
    </edge>
    <edge id=":13_4" function="internal">
        <lane id=":13_4_0" index="0" speed="8.87" length="3.90" shape="312.92,-72.68 309.04,-72.29"/>
    </edge>
    <edge id=":13_16" function="internal">
        <lane id=":13_16_0" index="0" speed="8.87" length="18.95" shape="309.04,-72.29 307.28,-72.11 303.51,-74.26 301.59,-79.14 301.53,-86.74"/>
    </edge>
    <edge id=":13_5" function="internal">
        <lane id=":13_5_0" index="0" speed="5.84" length="9.13" shape="304.71,-86.43 304.83,-83.77 305.78,-82.13 307.57,-81.50 310.21,-81.89"/>
    </edge>
    <edge id=":13_6" function="internal">
        <lane id=":13_6_0" index="0" speed="13.89" length="29.82" shape="304.71,-86.43 303.72,-80.45 301.87,-71.80 299.77,-63.20 298.03,-57.40"/>
    </edge>
    <edge id=":13_7" function="internal">
        <lane id=":13_7_0" index="0" speed="9.30" length="22.05" shape="304.71,-86.43 303.32,-78.97 300.84,-74.05 297.27,-71.66 292.62,-71.81"/>
    </edge>
    <edge id=":13_8" function="internal">
        <lane id=":13_8_0" index="0" speed="6.49" length="10.12" shape="295.14,-81.07 297.67,-80.84 299.58,-81.71 300.87,-83.68 301.53,-86.74"/>
    </edge>
    <edge id=":13_9" function="internal">
        <lane id=":13_9_0" index="0" speed="13.89" length="17.22" shape="295.14,-81.07 299.55,-80.06 302.69,-79.94 305.82,-80.59 310.21,-81.89"/>
        <lane id=":13_9_1" index="1" speed="13.89" length="17.22" shape="294.30,-77.98 299.22,-76.85 302.72,-76.68 306.22,-77.38 311.11,-78.82"/>
        <lane id=":13_9_2" index="2" speed="13.89" length="17.22" shape="293.46,-74.90 298.89,-73.63 302.76,-73.43 306.62,-74.17 312.02,-75.75"/>
    </edge>
    <edge id=":13_12" function="internal">
        <lane id=":13_12_0" index="0" speed="9.25" length="2.97" shape="293.46,-74.90 296.09,-73.53"/>
    </edge>
    <edge id=":13_17" function="internal">
        <lane id=":13_17_0" index="0" speed="9.25" length="17.89" shape="296.09,-73.53 297.60,-72.75 299.75,-69.12 299.89,-64.00 298.03,-57.40"/>
    </edge>
    <edge id=":13_13" function="internal">
        <lane id=":13_13_0" index="0" speed="6.45" length="9.56" shape="295.05,-58.56 295.58,-61.02 295.07,-63.02 293.52,-64.56 290.94,-65.63"/>
    </edge>
    <edge id=":13_14" function="internal">
        <lane id=":13_14_0" index="0" speed="13.89" length="28.94" shape="295.05,-58.56 296.76,-64.23 298.79,-72.53 300.57,-80.89 301.53,-86.74"/>
    </edge>
    <edge id=":13_15" function="internal">
        <lane id=":13_15_0" index="0" speed="13.89" length="25.03" shape="295.05,-58.56 298.12,-64.80 301.97,-69.74 306.60,-73.40 312.02,-75.75"/>
    </edge>
    <edge id=":14_0" function="internal">
        <lane id=":14_0_0" index="0" speed="7.31" length="11.42" shape="407.00,-91.44 404.22,-91.17 402.11,-89.87 400.68,-87.55 399.94,-84.21"/>
    </edge>
    <edge id=":14_1" function="internal">
        <lane id=":14_1_0" index="0" speed="13.89" length="17.21" shape="407.00,-91.44 402.28,-91.65 399.03,-91.34 395.85,-90.49 391.30,-89.10"/>
        <lane id=":14_1_1" index="1" speed="13.89" length="17.21" shape="407.24,-94.64 402.18,-94.86 398.70,-94.55 395.28,-93.66 390.39,-92.17"/>
        <lane id=":14_1_2" index="2" speed="13.89" length="17.21" shape="407.48,-97.83 402.07,-98.07 398.36,-97.75 394.70,-96.82 389.49,-95.24"/>
    </edge>
    <edge id=":14_4" function="internal">
        <lane id=":14_4_0" index="0" speed="9.25" length="2.80" shape="407.48,-97.83 404.82,-98.68"/>
    </edge>
    <edge id=":14_16" function="internal">
        <lane id=":14_16_0" index="0" speed="9.25" length="17.15" shape="404.82,-98.68 403.54,-99.09 400.99,-102.18 399.83,-107.10 400.06,-113.84"/>
    </edge>
    <edge id=":14_5" function="internal">
        <lane id=":14_5_0" index="0" speed="6.41" length="9.04" shape="403.24,-113.46 403.29,-110.97 404.14,-109.13 405.78,-107.94 408.21,-107.40"/>
    </edge>
    <edge id=":14_6" function="internal">
        <lane id=":14_6_0" index="0" speed="13.89" length="29.44" shape="403.24,-113.46 399.94,-84.21"/>
    </edge>
    <edge id=":14_7" function="internal">
        <lane id=":14_7_0" index="0" speed="12.34" length="24.28" shape="403.24,-113.46 401.71,-106.81 398.91,-101.56 394.84,-97.70 389.49,-95.24"/>
    </edge>
    <edge id=":14_8" function="internal">
        <lane id=":14_8_0" index="0" speed="10.40" length="17.03" shape="386.78,-104.44 392.33,-106.42 396.40,-108.65 398.97,-111.12 400.06,-113.84"/>
    </edge>
    <edge id=":14_9" function="internal">
        <lane id=":14_9_0" index="0" speed="13.89" length="20.70" shape="386.78,-104.44 392.99,-106.31 397.34,-107.38 401.77,-107.71 408.21,-107.40"/>
        <lane id=":14_9_1" index="1" speed="13.89" length="20.70" shape="387.68,-101.38 393.56,-103.15 397.68,-104.17 401.87,-104.50 407.97,-104.21"/>
        <lane id=":14_9_2" index="2" speed="13.89" length="20.70" shape="388.58,-98.31 394.13,-99.98 398.02,-100.96 401.97,-101.29 407.73,-101.02"/>
    </edge>
    <edge id=":14_12" function="internal">
        <lane id=":14_12_0" index="0" speed="8.87" length="3.74" shape="388.58,-98.31 392.31,-98.69"/>
    </edge>
    <edge id=":14_17" function="internal">
        <lane id=":14_17_0" index="0" speed="8.87" length="19.20" shape="392.31,-98.69 394.27,-98.89 398.05,-96.73 399.94,-91.84 399.94,-84.21"/>
    </edge>
    <edge id=":14_13" function="internal">
        <lane id=":14_13_0" index="0" speed="5.83" length="9.13" shape="396.76,-84.55 396.67,-87.21 395.73,-88.86 393.94,-89.49 391.30,-89.10"/>
    </edge>
    <edge id=":14_14" function="internal">
        <lane id=":14_14_0" index="0" speed="13.89" length="29.48" shape="396.76,-84.55 400.06,-113.84"/>
    </edge>
    <edge id=":14_15" function="internal">
        <lane id=":14_15_0" index="0" speed="9.92" length="21.88" shape="396.76,-84.55 398.12,-92.01 400.41,-97.25 403.61,-100.25 407.73,-101.02"/>
    </edge>
    <edge id=":15_0" function="internal">
        <lane id=":15_0_0" index="0" speed="6.54" length="8.07" shape="6.23,-198.61 4.09,-198.24 2.48,-197.30 1.41,-195.77 0.86,-193.68"/>
    </edge>
    <edge id=":15_1" function="internal">
        <lane id=":15_1_0" index="0" speed="8.46" length="12.47" shape="6.23,-198.61 2.87,-198.92 0.15,-200.09 -1.93,-202.12 -3.35,-205.02"/>
    </edge>
    <edge id=":15_2" function="internal">
        <lane id=":15_2_0" index="0" speed="7.02" length="8.33" shape="-0.32,-206.03 0.63,-204.12 2.02,-202.78 3.85,-202.01 6.12,-201.81"/>
    </edge>
    <edge id=":15_3" function="internal">
        <lane id=":15_3_0" index="0" speed="13.89" length="12.54" shape="-0.32,-206.03 0.61,-202.80 1.08,-199.94 1.14,-197.03 0.86,-193.68"/>
    </edge>
    <edge id=":15_4" function="internal">
        <lane id=":15_4_0" index="0" speed="13.89" length="11.15" shape="-2.32,-194.06 -2.01,-197.20 -2.02,-199.62 -2.44,-202.01 -3.35,-205.02"/>
    </edge>
    <edge id=":15_5" function="internal">
        <lane id=":15_5_0" index="0" speed="8.04" length="3.54" shape="-2.32,-194.06 -1.46,-197.35 -1.38,-197.46"/>
    </edge>
    <edge id=":15_6" function="internal">
        <lane id=":15_6_0" index="0" speed="8.04" length="9.14" shape="-1.38,-197.46 0.24,-199.74 2.76,-201.23 6.12,-201.81"/>
    </edge>
    <edge id=":16_0" function="internal">
        <lane id=":16_0_0" index="0" speed="6.52" length="9.03" shape="91.61,-195.90 91.16,-198.33 90.05,-200.04 88.26,-201.03 85.80,-201.30"/>
    </edge>
    <edge id=":16_1" function="internal">
        <lane id=":16_1_0" index="0" speed="13.89" length="17.33" shape="91.61,-195.90 91.55,-200.01 91.63,-204.56 91.81,-209.11 92.06,-213.22"/>
    </edge>
    <edge id=":16_2" function="internal">
        <lane id=":16_2_0" index="0" speed="10.79" length="4.25" shape="91.61,-195.90 92.31,-199.36 92.66,-200.00"/>
    </edge>
    <edge id=":16_12" function="internal">
        <lane id=":16_12_0" index="0" speed="10.79" length="12.68" shape="92.66,-200.00 94.38,-203.20 97.36,-206.78 100.83,-209.46"/>
    </edge>
    <edge id=":16_3" function="internal">
        <lane id=":16_3_0" index="0" speed="9.77" length="13.77" shape="102.40,-206.68 98.99,-204.34 96.59,-201.79 95.19,-199.02 94.81,-196.02"/>
    </edge>
    <edge id=":16_4" function="internal">
        <lane id=":16_4_0" index="0" speed="13.89" length="17.57" shape="102.40,-206.68 98.68,-204.82 94.35,-203.13 89.89,-201.86 85.80,-201.30"/>
    </edge>
    <edge id=":16_5" function="internal">
        <lane id=":16_5_0" index="0" speed="7.38" length="17.30" shape="102.40,-206.68 97.53,-204.68 94.17,-205.11 92.35,-207.95 92.06,-213.22"/>
    </edge>
    <edge id=":16_6" function="internal">
        <lane id=":16_6_0" index="0" speed="5.60" length="9.32" shape="95.25,-212.98 95.41,-210.15 96.39,-208.61 98.20,-208.39 100.83,-209.46"/>
    </edge>
    <edge id=":16_7" function="internal">
        <lane id=":16_7_0" index="0" speed="13.89" length="16.97" shape="95.25,-212.98 95.00,-208.93 94.82,-204.51 94.74,-200.08 94.81,-196.02"/>
    </edge>
    <edge id=":16_8" function="internal">
        <lane id=":16_8_0" index="0" speed="8.98" length="5.21" shape="95.25,-212.98 94.35,-207.98 94.29,-207.87"/>
    </edge>
    <edge id=":16_13" function="internal">
        <lane id=":16_13_0" index="0" speed="8.98" length="11.48" shape="94.29,-207.87 92.47,-204.37 89.63,-202.14 85.80,-201.30"/>
    </edge>
    <edge id=":16_9" function="internal">
        <lane id=":16_9_0" index="0" speed="7.68" length="11.94" shape="85.70,-204.50 88.25,-205.11 90.16,-206.77 91.43,-209.47 92.06,-213.22"/>
    </edge>
    <edge id=":16_10" function="internal">
        <lane id=":16_10_0" index="0" speed="13.89" length="16.05" shape="85.70,-204.50 89.56,-205.00 93.50,-206.12 97.33,-207.67 100.83,-209.46"/>
    </edge>
    <edge id=":16_11" function="internal">
        <lane id=":16_11_0" index="0" speed="8.01" length="14.17" shape="85.70,-204.50 89.55,-204.08 92.36,-202.53 94.11,-199.84 94.81,-196.02"/>
    </edge>
    <edge id=":17_0" function="internal">
        <lane id=":17_0_0" index="0" speed="6.27" length="10.34" shape="147.07,-223.96 146.08,-226.93 144.54,-228.57 142.43,-228.88 139.78,-227.88"/>
    </edge>
    <edge id=":17_1" function="internal">
        <lane id=":17_1_0" index="0" speed="13.89" length="23.31" shape="147.07,-223.96 146.43,-230.04 146.96,-235.77 148.68,-241.15 151.57,-246.17"/>
        <lane id=":17_1_1" index="1" speed="13.89" length="20.69" shape="150.21,-224.58 149.64,-230.00 150.10,-235.09 151.61,-239.86 154.17,-244.31"/>
    </edge>
    <edge id=":17_3" function="internal">
        <lane id=":17_3_0" index="0" speed="8.17" length="5.87" shape="150.21,-224.58 150.01,-230.02 150.23,-230.39"/>
    </edge>
    <edge id=":17_14" function="internal">
        <lane id=":17_14_0" index="0" speed="8.17" length="14.08" shape="150.23,-230.39 151.98,-233.34 156.10,-234.56 162.38,-233.67"/>
    </edge>
    <edge id=":17_4" function="internal">
        <lane id=":17_4_0" index="0" speed="5.75" length="9.17" shape="161.56,-230.58 158.87,-230.91 157.13,-230.22 156.33,-228.53 156.49,-225.82"/>
    </edge>
    <edge id=":17_5" function="internal">
        <lane id=":17_5_0" index="0" speed="13.89" length="22.21" shape="161.56,-230.58 156.73,-231.04 150.49,-230.63 144.34,-229.52 139.78,-227.88"/>
    </edge>
    <edge id=":17_6" function="internal">
        <lane id=":17_6_0" index="0" speed="8.31" length="19.67" shape="161.56,-230.58 155.67,-232.87 152.47,-235.92 151.97,-239.74 154.17,-244.31"/>
    </edge>
    <edge id=":17_7" function="internal">
        <lane id=":17_7_0" index="0" speed="5.99" length="9.56" shape="159.37,-240.58 158.18,-238.22 158.28,-236.28 159.68,-234.77 162.38,-233.67"/>
    </edge>
    <edge id=":17_8" function="internal">
        <lane id=":17_8_0" index="0" speed="12.56" length="15.46" shape="159.37,-240.58 157.49,-237.28 156.38,-233.72 156.05,-229.90 156.49,-225.82"/>
        <lane id=":17_8_1" index="1" speed="13.55" length="18.08" shape="156.77,-242.44 154.55,-238.57 153.24,-234.41 152.84,-229.95 153.35,-225.20"/>
    </edge>
    <edge id=":17_10" function="internal">
        <lane id=":17_10_0" index="0" speed="13.89" length="22.56" shape="156.77,-242.44 152.27,-237.09 147.72,-233.04 143.45,-230.05 139.78,-227.88"/>
    </edge>
    <edge id=":17_11" function="internal">
        <lane id=":17_11_0" index="0" speed="13.89" length="20.61" shape="138.20,-230.66 141.30,-232.98 144.33,-236.30 147.63,-240.67 151.57,-246.17"/>
    </edge>
    <edge id=":17_12" function="internal">
        <lane id=":17_12_0" index="0" speed="13.89" length="24.60" shape="138.20,-230.66 143.13,-232.35 150.11,-233.57 157.17,-234.09 162.38,-233.67"/>
    </edge>
    <edge id=":17_13" function="internal">
        <lane id=":17_13_0" index="0" speed="8.50" length="20.10" shape="138.20,-230.66 143.89,-233.02 148.32,-232.89 151.47,-230.28 153.35,-225.20"/>
    </edge>
    <edge id=":18_0" function="internal">
        <lane id=":18_0_0" index="0" speed="6.96" length="9.25" shape="320.46,-190.93 317.96,-190.46 316.10,-189.36 314.88,-187.63 314.30,-185.27"/>
    </edge>
    <edge id=":18_1" function="internal">
        <lane id=":18_1_0" index="0" speed="13.89" length="16.07" shape="320.46,-190.93 316.55,-190.93 312.45,-191.29 308.38,-191.94 304.55,-192.81"/>
    </edge>
    <edge id=":18_2" function="internal">
        <lane id=":18_2_0" index="0" speed="8.48" length="15.36" shape="320.46,-190.93 316.66,-191.36 313.78,-193.11 311.82,-196.19 310.78,-200.59"/>
    </edge>
    <edge id=":18_3" function="internal">
        <lane id=":18_3_0" index="0" speed="7.09" length="10.42" shape="313.96,-200.95 314.66,-197.85 315.95,-195.68 317.82,-194.44 320.28,-194.13"/>
    </edge>
    <edge id=":18_4" function="internal">
        <lane id=":18_4_0" index="0" speed="13.89" length="15.71" shape="313.96,-200.95 314.32,-197.11 314.53,-193.11 314.53,-189.12 314.30,-185.27"/>
    </edge>
    <edge id=":18_5" function="internal">
        <lane id=":18_5_0" index="0" speed="7.50" length="4.76" shape="313.96,-200.95 313.84,-196.33 313.78,-196.21"/>
    </edge>
    <edge id=":18_12" function="internal">
        <lane id=":18_12_0" index="0" speed="7.50" length="11.10" shape="313.78,-196.21 312.24,-193.44 309.14,-192.26 304.55,-192.81"/>
    </edge>
    <edge id=":18_6" function="internal">
        <lane id=":18_6_0" index="0" speed="5.85" length="9.12" shape="305.37,-195.90 308.01,-195.59 309.79,-196.27 310.71,-197.93 310.78,-200.59"/>
    </edge>
    <edge id=":18_7" function="internal">
        <lane id=":18_7_0" index="0" speed="13.89" length="15.07" shape="305.37,-195.90 309.04,-195.05 312.77,-194.43 316.52,-194.11 320.28,-194.13"/>
    </edge>
    <edge id=":18_8" function="internal">
        <lane id=":18_8_0" index="0" speed="8.82" length="15.30" shape="305.37,-195.90 309.57,-194.28 312.46,-191.96 314.04,-188.96 314.30,-185.27"/>
    </edge>
    <edge id=":18_9" function="internal">
        <lane id=":18_9_0" index="0" speed="7.47" length="10.73" shape="311.12,-185.58 310.90,-188.04 309.74,-190.07 307.62,-191.66 304.55,-192.81"/>
    </edge>
    <edge id=":18_10" function="internal">
        <lane id=":18_10_0" index="0" speed="13.89" length="15.04" shape="311.12,-185.58 311.35,-189.33 311.34,-193.09 311.14,-196.85 310.78,-200.59"/>
    </edge>
    <edge id=":18_11" function="internal">
        <lane id=":18_11_0" index="0" speed="8.38" length="3.67" shape="311.12,-185.58 311.98,-189.14"/>
    </edge>
    <edge id=":18_13" function="internal">